Execute poe command line: poe  ./oceanM ocean_CCS1-RD.HCof01R.0

 Model Input Parameters:  ROMS/TOMS version 3.7  
                          Friday - March 20, 2015 -  7:57:28 PM
 -----------------------------------------------------------------------------

 California Current

 Operating system : Linux
 CPU/hardware     : x86_64
 Compiler system  : ifort
 Compiler command : /glade/apps/opt/modulefiles/ys/cmpwrappers/mpif90
 Compiler flags   : -heap-arrays -fp-model precise -ip -O3 -free -free

 Input Script  : 

 SVN Root URL  : https:://myroms.org/svn/src
 SVN Revision  : exported

 Local Root    : /glade/u/home/dussin/MODELS/ROMS-FISH.git
 Header Dir    : /glade/u/home/dussin/TOOLS/RMANAGER/user/raphael/CCS1-RD.HCof01R/src
 Header file   : ccs1.h
 Analytical Dir: /glade/u/home/dussin/TOOLS/RMANAGER/user/raphael/CCS1-RD.HCof01R/src

 Resolution, Grid 01: 0180x0480x050,  Parallel Nodes:  64,  Tiling: 008x008


 Physical Parameters, Grid: 01
 =============================

       1152  ntimes            Number of timesteps for 3-D equations.
    150.000  dt                Timestep size (s) for 3-D equations.
         20  ndtfast           Number of timesteps for 2-D equations between
                                 each 3D timestep.
          1  ERstr             Starting ensemble/perturbation run number.
          1  ERend             Ending ensemble/perturbation run number.
          0  nrrec             Number of restart records to read from disk.
          T  LcycleRST         Switch to recycle time-records in restart file.
       1152  nRST              Number of timesteps between the writing of data
                                 into restart fields.
          1  ninfo             Number of timesteps between print of information
                                 to standard output.
        576  nFSH              Number of timesteps between the writing of data
                                 into fish file.
     210240  ndefFISh          Number of timesteps between creation of new
                                 fish files.
        576  nPRE              Number of timesteps between the writing of data
                                 into predator file.
        576  nFLE              Number of timesteps between the writing of data
                                 into fleet file.
          T  ldefout           Switch to create a new output NetCDF file(s).
        576  nHIS              Number of timesteps between the writing fields
                                 into history file.
        576  ndefHIS           Number of timesteps between creation of new
                                 history files.
          1  ntsAVG            Starting timestep for the accumulation of output
                                 time-averaged data.
        576  nAVG              Number of timesteps between the writing of
                                 time-averaged data into averages file.
        576  ndefAVG           Number of timesteps between creation of new
                                 time-averaged file.
 5.0000E+00  nl_tnu2(01)       NLM Horizontal, harmonic mixing coefficient
                                 (m2/s) for tracer 01: temp
 5.0000E+00  nl_tnu2(02)       NLM Horizontal, harmonic mixing coefficient
                                 (m2/s) for tracer 02: salt
 2.5000E+01  nl_visc2          NLM Horizontal, harmonic mixing coefficient
                                 (m2/s) for momentum.
          F  LuvSponge         Turning OFF sponge on horizontal momentum.
          F  LtracerSponge(01) Turning OFF sponge on tracer 01: temp
          F  LtracerSponge(02) Turning OFF sponge on tracer 02: salt
 1.0000E-06  Akt_bak(01)       Background vertical mixing coefficient (m2/s)
                                 for tracer 01: temp
 1.0000E-06  Akt_bak(02)       Background vertical mixing coefficient (m2/s)
                                 for tracer 02: salt
 1.0000E-05  Akv_bak           Background vertical mixing coefficient (m2/s)
                                 for momentum.
 3.0000E-04  rdrg              Linear bottom drag coefficient (m/s).
 3.0000E-03  rdrg2             Quadratic bottom drag coefficient.
 2.0000E-02  Zob               Bottom roughness (m).
 1.0000E+01  blk_ZQ            Height (m) of surface air humidity measurement.
 1.0000E+01  blk_ZT            Height (m) of surface air temperature measurement.
 1.0000E+01  blk_ZW            Height (m) of surface winds measurement.
          1  lmd_Jwt           Jerlov water type.
          2  Vtransform        S-coordinate transformation equation.
          4  Vstretching       S-coordinate stretching function.
 7.0000E+00  theta_s           S-coordinate surface control parameter.
 2.0000E+00  theta_b           S-coordinate bottom  control parameter.
    250.000  Tcline            S-coordinate surface/bottom layer width (m) used
                                 in vertical coordinate stretching.
   1025.000  rho0              Mean density (kg/m3) for Boussinesq approximation.
  21186.500  dstart            Time-stamp assigned to model initialization (days).
     -1.000  tide_start        Reference time origin for tidal forcing (days).
19000101.00  time_ref          Reference time for units attribute (yyyymmdd.dd)
 3.6000E+02  Tnudg(01)         Nudging/relaxation time scale (days)
                                 for tracer 01: temp
 3.6000E+02  Tnudg(02)         Nudging/relaxation time scale (days)
                                 for tracer 02: salt
 3.6000E+02  Znudg             Nudging/relaxation time scale (days)
                                 for free-surface.
 3.6000E+02  M2nudg            Nudging/relaxation time scale (days)
                                 for 2D momentum.
 3.6000E+02  M3nudg            Nudging/relaxation time scale (days)
                                 for 3D momentum.
 1.2000E+02  obcfac            Factor between passive and active
                                 open boundary conditions.
          F  VolCons(1)        NLM western  edge boundary volume conservation.
          F  VolCons(2)        NLM southern edge boundary volume conservation.
          F  VolCons(3)        NLM eastern  edge boundary volume conservation.
          F  VolCons(4)        NLM northern edge boundary volume conservation.
     10.000  T0                Background potential temperature (C) constant.
     35.000  S0                Background salinity (PSU) constant.
      1.000  gamma2            Slipperiness variable: free-slip (1.0) or 
                                                      no-slip (-1.0).
          F  LuvSrc            Turning OFF momentum point Sources/Sinks.
          F  LwSrc             Turning OFF volume influx point Sources/Sinks.
          F  LtracerSrc(01)    Turning OFF point Sources/Sinks on tracer 01: temp
          F  LtracerSrc(02)    Turning OFF point Sources/Sinks on tracer 02: salt
          T  LsshCLM           Turning ON  processing of SSH climatology.
          T  Lm2CLM            Turning ON  processing of 2D momentum climatology.
          T  Lm3CLM            Turning ON  processing of 3D momentum climatology.
          T  LtracerCLM(01)    Turning ON  processing of climatology tracer 01: temp
          T  LtracerCLM(02)    Turning ON  processing of climatology tracer 02: salt
          T  LnudgeM2CLM       Turning ON  nudging of 2D momentum climatology.
          T  LnudgeM3CLM       Turning ON  nudging of 3D momentum climatology.
          T  LnudgeTCLM(01)    Turning ON  nudging of climatology tracer 01: temp
          T  LnudgeTCLM(02)    Turning ON  nudging of climatology tracer 02: salt
          T  Hout(idFsur)      Write out free-surface.
          T  Hout(idUbar)      Write out 2D U-momentum component.
          T  Hout(idVbar)      Write out 2D V-momentum component.
          T  Hout(idUvel)      Write out 3D U-momentum component.
          T  Hout(idVvel)      Write out 3D V-momentum component.
          T  Hout(idWvel)      Write out W-momentum component.
          T  Hout(idOvel)      Write out omega vertical velocity.
          T  Hout(idTvar)      Write out tracer 01: temp
          T  Hout(idTvar)      Write out tracer 02: salt
          T  Hout(idPair)      Write out surface air pressure.
          T  Hout(idUair)      Write out surface U-wind component.
          T  Hout(idVair)      Write out surface V-wind component.
          T  Hout(idSrad)      Write out shortwave radiation flux.
          T  Hout(idHsbl)      Write out depth of surface boundary layer.

          T  Aout(idFsur)      Write out averaged free-surface.
          T  Aout(idUbar)      Write out averaged 2D U-momentum component.
          T  Aout(idVbar)      Write out averaged 2D V-momentum component.
          T  Aout(idUvel)      Write out averaged 3D U-momentum component.
          T  Aout(idVvel)      Write out averaged 3D V-momentum component.
          T  Aout(idWvel)      Write out averaged W-momentum component.
          T  Aout(idOvel)      Write out averaged omega vertical velocity.
          T  Aout(idTvar)      Write out averaged tracer 01: temp
          T  Aout(idTvar)      Write out averaged tracer 02: salt
          T  Aout(idUsms)      Write out averaged surface U-momentum stress.
          T  Aout(idVsms)      Write out averaged surface V-momentum stress.
          T  Aout(idRunoff)    Write out averaged surface fresh water input via runoff.
          T  Aout(idPair)      Write out averaged surface air pressure.
          T  Aout(idUair)      Write out averaged surface U-wind component.
          T  Aout(idVair)      Write out averaged surface V-wind component.
          T  Aout(idTsur)      Write out averaged surface net heat flux.
          T  Aout(idTsur)      Write out averaged surface net salt flux.
          T  Aout(idSrad)      Write out averaged shortwave radiation flux.
          T  Aout(idLrad)      Write out averaged longwave radiation flux.
          T  Aout(idLhea)      Write out averaged latent heat flux.
          T  Aout(idShea)      Write out averaged sensible heat flux.
          T  Aout(idevap)      Write out averaged evaporation rate.
          T  Aout(idrain)      Write out averaged rain rate.
          T  Aout(idDano)      Write out averaged density anomaly.
          T  Aout(idVvis)      Write out averaged vertical viscosity: AKv.
          T  Aout(idTdif)      Write out averaged vertical diffusion: AKt(itemp).
          T  Aout(idHsbl)      Write out averaged depth of surface boundary layer.

 Output/Input Files:

             Output Restart File:  /glade/scratch/dussin/tmpdir_CCS1-RD.HCof01R/CCS1-RD.HCof01R_rst.nc
        Prefix for History Files:  /glade/scratch/dussin/tmpdir_CCS1-RD.HCof01R/CCS1-RD.HCof01R_his
       Prefix for Averages Files:  /glade/scratch/dussin/tmpdir_CCS1-RD.HCof01R/CCS1-RD.HCof01R_avg
    Prefix for Fish Files:  /glade/scratch/dussin/tmpdir_CCS1-RD.HCof01R/CCS1-RD.HCof01R_fish
    Prefix for Predator Files:  /glade/scratch/dussin/tmpdir_CCS1-RD.HCof01R/CCS1-RD.HCof01R_pred
    Prefix for Fleet Files:  /glade/scratch/dussin/tmpdir_CCS1-RD.HCof01R/CCS1-RD.HCof01R_fleet
                 Input Grid File:  /glade/scratch/dussin/CCS1-FISH/CCS_7k_0-360_fred_grd.nc
    Input Nonlinear Initial File:  /glade/scratch/dussin/CCS1-FISH/SODA_2.1.6_19580101-19580106_ic_nemuro_CCS.nc
           Input Forcing File 01:  /glade/scratch/dussin/CCS1-FISH/lwrad.1948-2007.nc
           Input Forcing File 02:  /glade/scratch/dussin/CCS1-FISH/Pair.1948-2007.nc
           Input Forcing File 03:  /glade/scratch/dussin/CCS1-FISH/Qair.1948-2007.nc
           Input Forcing File 04:  /glade/scratch/dussin/CCS1-FISH/rain.1948-2007.nc
                                   /glade/scratch/dussin/CCS1-FISH/rain.2008m01_fake.nc
           Input Forcing File 05:  /glade/scratch/dussin/CCS1-FISH/swrad.1948-2007.nc
           Input Forcing File 06:  /glade/scratch/dussin/CCS1-FISH/Tair.1948-2007.nc
           Input Forcing File 07:  /glade/scratch/dussin/CCS1-FISH/Uwind.1948-2007.nc
           Input Forcing File 08:  /glade/scratch/dussin/CCS1-FISH/Vwind.1948-2007.nc
           Input Forcing File 09:  /glade/scratch/dussin/CCS1-FISH/sss_monthly_climato_flooded.nc
           Input Forcing File 10:  /glade/scratch/dussin/CCS1-FISH/runoff_CCS_daitren_inter_annual_1948-2007.nc
           Input Forcing File 11:  /glade/scratch/dussin/CCS1-FISH/CCS_tides_otps.nc
          Input Climatology File:  /glade/scratch/dussin/CCS1-FISH/SODA_2.1.6_1957_clim_CCS.nc
                                   /glade/scratch/dussin/CCS1-FISH/SODA_2.1.6_1958_clim_CCS.nc
                                   /glade/scratch/dussin/CCS1-FISH/SODA_2.1.6_1959_clim_CCS.nc
         Input Boundary File 01:  /glade/scratch/dussin/CCS1-FISH/SODA_2.1.6_y1957_bdry_CCS.nc
                                   /glade/scratch/dussin/CCS1-FISH/SODA_2.1.6_y1958_bdry_CCS.nc
                                   /glade/scratch/dussin/CCS1-FISH/SODA_2.1.6_y1959_bdry_CCS.nc
         Input Boundary File 02:  /glade/scratch/dussin/CCS1-FISH/CCS_nemuro_bry.nc
         Biology Parameters File:  nemsan.in

 Tile partition information for Grid 01:  0180x0480x0050  tiling: 008x008

     tile     Istr     Iend     Jstr     Jend     Npts

 Number of tracers:           13
        0        1       21        1       60    63000
        1       22       44        1       60    69000
        2       45       67        1       60    69000
        3       68       90        1       60    69000
        4       91      113        1       60    69000
        5      114      136        1       60    69000
        6      137      159        1       60    69000
        7      160      180        1       60    63000
        8        1       21       61      120    63000
        9       22       44       61      120    69000
       10       45       67       61      120    69000
       11       68       90       61      120    69000
       12       91      113       61      120    69000
       13      114      136       61      120    69000
       14      137      159       61      120    69000
       15      160      180       61      120    63000
       16        1       21      121      180    63000
       17       22       44      121      180    69000
       18       45       67      121      180    69000
       19       68       90      121      180    69000
       20       91      113      121      180    69000
       21      114      136      121      180    69000
       22      137      159      121      180    69000
       23      160      180      121      180    63000
       24        1       21      181      240    63000
       25       22       44      181      240    69000
       26       45       67      181      240    69000
       27       68       90      181      240    69000
       28       91      113      181      240    69000
       29      114      136      181      240    69000
       30      137      159      181      240    69000
       31      160      180      181      240    63000
       32        1       21      241      300    63000
       33       22       44      241      300    69000
       34       45       67      241      300    69000
       35       68       90      241      300    69000
       36       91      113      241      300    69000
       37      114      136      241      300    69000
       38      137      159      241      300    69000
       39      160      180      241      300    63000
       40        1       21      301      360    63000
       41       22       44      301      360    69000
       42       45       67      301      360    69000
       43       68       90      301      360    69000
       44       91      113      301      360    69000
       45      114      136      301      360    69000
       46      137      159      301      360    69000
       47      160      180      301      360    63000
       48        1       21      361      420    63000
       49       22       44      361      420    69000
       50       45       67      361      420    69000
       51       68       90      361      420    69000
       52       91      113      361      420    69000
       53      114      136      361      420    69000
       54      137      159      361      420    69000
       55      160      180      361      420    63000
       56        1       21      421      480    63000
       57       22       44      421      480    69000
       58       45       67      421      480    69000
       59       68       90      421      480    69000
       60       91      113      421      480    69000
       61      114      136      421      480    69000
       62      137      159      421      480    69000
       63      160      180      421      480    63000

 Tile minimum and maximum fractional coordinates for Grid 01:
   (interior points only)

     tile     Xmin     Xmax     Ymin     Ymax     grid

        0     0.50    21.50     0.50    60.50  RHO-points
        1    21.50    44.50     0.50    60.50  RHO-points
        2    44.50    67.50     0.50    60.50  RHO-points
        3    67.50    90.50     0.50    60.50  RHO-points
        4    90.50   113.50     0.50    60.50  RHO-points
        5   113.50   136.50     0.50    60.50  RHO-points
        6   136.50   159.50     0.50    60.50  RHO-points
        7   159.50   180.50     0.50    60.50  RHO-points
        8     0.50    21.50    60.50   120.50  RHO-points
        9    21.50    44.50    60.50   120.50  RHO-points
       10    44.50    67.50    60.50   120.50  RHO-points
       11    67.50    90.50    60.50   120.50  RHO-points
       12    90.50   113.50    60.50   120.50  RHO-points
       13   113.50   136.50    60.50   120.50  RHO-points
       14   136.50   159.50    60.50   120.50  RHO-points
       15   159.50   180.50    60.50   120.50  RHO-points
       16     0.50    21.50   120.50   180.50  RHO-points
       17    21.50    44.50   120.50   180.50  RHO-points
       18    44.50    67.50   120.50   180.50  RHO-points
       19    67.50    90.50   120.50   180.50  RHO-points
       20    90.50   113.50   120.50   180.50  RHO-points
       21   113.50   136.50   120.50   180.50  RHO-points
       22   136.50   159.50   120.50   180.50  RHO-points
       23   159.50   180.50   120.50   180.50  RHO-points
       24     0.50    21.50   180.50   240.50  RHO-points
       25    21.50    44.50   180.50   240.50  RHO-points
       26    44.50    67.50   180.50   240.50  RHO-points
       27    67.50    90.50   180.50   240.50  RHO-points
       28    90.50   113.50   180.50   240.50  RHO-points
       29   113.50   136.50   180.50   240.50  RHO-points
       30   136.50   159.50   180.50   240.50  RHO-points
       31   159.50   180.50   180.50   240.50  RHO-points
       32     0.50    21.50   240.50   300.50  RHO-points
       33    21.50    44.50   240.50   300.50  RHO-points
       34    44.50    67.50   240.50   300.50  RHO-points
       35    67.50    90.50   240.50   300.50  RHO-points
       36    90.50   113.50   240.50   300.50  RHO-points
       37   113.50   136.50   240.50   300.50  RHO-points
       38   136.50   159.50   240.50   300.50  RHO-points
       39   159.50   180.50   240.50   300.50  RHO-points
       40     0.50    21.50   300.50   360.50  RHO-points
       41    21.50    44.50   300.50   360.50  RHO-points
       42    44.50    67.50   300.50   360.50  RHO-points
       43    67.50    90.50   300.50   360.50  RHO-points
       44    90.50   113.50   300.50   360.50  RHO-points
       45   113.50   136.50   300.50   360.50  RHO-points
       46   136.50   159.50   300.50   360.50  RHO-points
       47   159.50   180.50   300.50   360.50  RHO-points
       48     0.50    21.50   360.50   420.50  RHO-points
       49    21.50    44.50   360.50   420.50  RHO-points
       50    44.50    67.50   360.50   420.50  RHO-points
       51    67.50    90.50   360.50   420.50  RHO-points
       52    90.50   113.50   360.50   420.50  RHO-points
       53   113.50   136.50   360.50   420.50  RHO-points
       54   136.50   159.50   360.50   420.50  RHO-points
       55   159.50   180.50   360.50   420.50  RHO-points
       56     0.50    21.50   420.50   480.50  RHO-points
       57    21.50    44.50   420.50   480.50  RHO-points
       58    44.50    67.50   420.50   480.50  RHO-points
       59    67.50    90.50   420.50   480.50  RHO-points
       60    90.50   113.50   420.50   480.50  RHO-points
       61   113.50   136.50   420.50   480.50  RHO-points
       62   136.50   159.50   420.50   480.50  RHO-points
       63   159.50   180.50   420.50   480.50  RHO-points

        0     1.00    21.50     0.50    60.50    U-points
        1    21.50    44.50     0.50    60.50    U-points
        2    44.50    67.50     0.50    60.50    U-points
        3    67.50    90.50     0.50    60.50    U-points
        4    90.50   113.50     0.50    60.50    U-points
        5   113.50   136.50     0.50    60.50    U-points
        6   136.50   159.50     0.50    60.50    U-points
        7   159.50   180.00     0.50    60.50    U-points
        8     1.00    21.50    60.50   120.50    U-points
        9    21.50    44.50    60.50   120.50    U-points
       10    44.50    67.50    60.50   120.50    U-points
       11    67.50    90.50    60.50   120.50    U-points
       12    90.50   113.50    60.50   120.50    U-points
       13   113.50   136.50    60.50   120.50    U-points
       14   136.50   159.50    60.50   120.50    U-points
       15   159.50   180.00    60.50   120.50    U-points
       16     1.00    21.50   120.50   180.50    U-points
       17    21.50    44.50   120.50   180.50    U-points
       18    44.50    67.50   120.50   180.50    U-points
       19    67.50    90.50   120.50   180.50    U-points
       20    90.50   113.50   120.50   180.50    U-points
       21   113.50   136.50   120.50   180.50    U-points
       22   136.50   159.50   120.50   180.50    U-points
       23   159.50   180.00   120.50   180.50    U-points
       24     1.00    21.50   180.50   240.50    U-points
       25    21.50    44.50   180.50   240.50    U-points
       26    44.50    67.50   180.50   240.50    U-points
       27    67.50    90.50   180.50   240.50    U-points
       28    90.50   113.50   180.50   240.50    U-points
       29   113.50   136.50   180.50   240.50    U-points
       30   136.50   159.50   180.50   240.50    U-points
       31   159.50   180.00   180.50   240.50    U-points
       32     1.00    21.50   240.50   300.50    U-points
       33    21.50    44.50   240.50   300.50    U-points
       34    44.50    67.50   240.50   300.50    U-points
       35    67.50    90.50   240.50   300.50    U-points
       36    90.50   113.50   240.50   300.50    U-points
       37   113.50   136.50   240.50   300.50    U-points
       38   136.50   159.50   240.50   300.50    U-points
       39   159.50   180.00   240.50   300.50    U-points
       40     1.00    21.50   300.50   360.50    U-points
       41    21.50    44.50   300.50   360.50    U-points
       42    44.50    67.50   300.50   360.50    U-points
       43    67.50    90.50   300.50   360.50    U-points
       44    90.50   113.50   300.50   360.50    U-points
       45   113.50   136.50   300.50   360.50    U-points
       46   136.50   159.50   300.50   360.50    U-points
       47   159.50   180.00   300.50   360.50    U-points
       48     1.00    21.50   360.50   420.50    U-points
       49    21.50    44.50   360.50   420.50    U-points
       50    44.50    67.50   360.50   420.50    U-points
       51    67.50    90.50   360.50   420.50    U-points
       52    90.50   113.50   360.50   420.50    U-points
       53   113.50   136.50   360.50   420.50    U-points
       54   136.50   159.50   360.50   420.50    U-points
       55   159.50   180.00   360.50   420.50    U-points
       56     1.00    21.50   420.50   480.50    U-points
       57    21.50    44.50   420.50   480.50    U-points
       58    44.50    67.50   420.50   480.50    U-points
       59    67.50    90.50   420.50   480.50    U-points
       60    90.50   113.50   420.50   480.50    U-points
       61   113.50   136.50   420.50   480.50    U-points
       62   136.50   159.50   420.50   480.50    U-points
       63   159.50   180.00   420.50   480.50    U-points

        0     0.50    21.50     1.00    60.50    V-points
        1    21.50    44.50     1.00    60.50    V-points
        2    44.50    67.50     1.00    60.50    V-points
        3    67.50    90.50     1.00    60.50    V-points
        4    90.50   113.50     1.00    60.50    V-points
        5   113.50   136.50     1.00    60.50    V-points
        6   136.50   159.50     1.00    60.50    V-points
        7   159.50   180.50     1.00    60.50    V-points
        8     0.50    21.50    60.50   120.50    V-points
        9    21.50    44.50    60.50   120.50    V-points
       10    44.50    67.50    60.50   120.50    V-points
       11    67.50    90.50    60.50   120.50    V-points
       12    90.50   113.50    60.50   120.50    V-points
       13   113.50   136.50    60.50   120.50    V-points
       14   136.50   159.50    60.50   120.50    V-points
       15   159.50   180.50    60.50   120.50    V-points
       16     0.50    21.50   120.50   180.50    V-points
       17    21.50    44.50   120.50   180.50    V-points
       18    44.50    67.50   120.50   180.50    V-points
       19    67.50    90.50   120.50   180.50    V-points
       20    90.50   113.50   120.50   180.50    V-points
       21   113.50   136.50   120.50   180.50    V-points
       22   136.50   159.50   120.50   180.50    V-points
       23   159.50   180.50   120.50   180.50    V-points
       24     0.50    21.50   180.50   240.50    V-points
       25    21.50    44.50   180.50   240.50    V-points
       26    44.50    67.50   180.50   240.50    V-points
       27    67.50    90.50   180.50   240.50    V-points
       28    90.50   113.50   180.50   240.50    V-points
       29   113.50   136.50   180.50   240.50    V-points
       30   136.50   159.50   180.50   240.50    V-points
       31   159.50   180.50   180.50   240.50    V-points
       32     0.50    21.50   240.50   300.50    V-points
       33    21.50    44.50   240.50   300.50    V-points
       34    44.50    67.50   240.50   300.50    V-points
       35    67.50    90.50   240.50   300.50    V-points
       36    90.50   113.50   240.50   300.50    V-points
       37   113.50   136.50   240.50   300.50    V-points
       38   136.50   159.50   240.50   300.50    V-points
       39   159.50   180.50   240.50   300.50    V-points
       40     0.50    21.50   300.50   360.50    V-points
       41    21.50    44.50   300.50   360.50    V-points
       42    44.50    67.50   300.50   360.50    V-points
       43    67.50    90.50   300.50   360.50    V-points
       44    90.50   113.50   300.50   360.50    V-points
       45   113.50   136.50   300.50   360.50    V-points
       46   136.50   159.50   300.50   360.50    V-points
       47   159.50   180.50   300.50   360.50    V-points
       48     0.50    21.50   360.50   420.50    V-points
       49    21.50    44.50   360.50   420.50    V-points
       50    44.50    67.50   360.50   420.50    V-points
       51    67.50    90.50   360.50   420.50    V-points
       52    90.50   113.50   360.50   420.50    V-points
       53   113.50   136.50   360.50   420.50    V-points
       54   136.50   159.50   360.50   420.50    V-points
       55   159.50   180.50   360.50   420.50    V-points
       56     0.50    21.50   420.50   480.00    V-points
       57    21.50    44.50   420.50   480.00    V-points
       58    44.50    67.50   420.50   480.00    V-points
       59    67.50    90.50   420.50   480.00    V-points
       60    90.50   113.50   420.50   480.00    V-points
       61   113.50   136.50   420.50   480.00    V-points
       62   136.50   159.50   420.50   480.00    V-points
       63   159.50   180.50   420.50   480.00    V-points

 Maximum halo size in XI and ETA directions:

               HaloSizeI(1) =      70
               HaloSizeJ(1) =     144
                TileSide(1) =      66
                TileSize(1) =    1914



 Nemuro Model Parameters, Grid: 01
 =================================

          1  BioIter           Number of iterations for nonlinear convergence.
 4.0000E-02  AttSW             Light attenuation due to seawater (m-1)
 2.0000E-02  AttPS             Light attenuation due to small phytoplankton
                                 (m2/mmole_N).
 2.0000E-02  AttPL             Light attenuation due to large phytoplankton
                                 (m2/mmole_N).
 4.3000E-01  PARfrac           Fraction of shortwave radiation that is
                                 photosynthetically active (nondimensional).
 1.0000E-02  AlphaPS           Small phytoplankton initial slope of the P-I curve
                                 (1/(W/m2) 1/day).
 2.0000E-02  AlphaPL           Small phytoplankton initial slope of the P-I curve
                                 (1/(W/m2) 1/day).
 3.0000E-04  BetaPS            Small phytoplankton photoinhibition coefficient
                                 (1/(W/m2) 1/day).
 6.0000E-04  BetaPL            Large phytoplankton photoinhibition coefficient
                                 (1/(W/m2) 1/day).
 8.0000E-01  VmaxS             Small phytoplankton maximum photosynthetic rate
                                 (1/day).
 1.6000E+00  VmaxL             Large phytoplankton maximum photosynthetic rate
                                 (1/day).
 3.0000E-01  KNO3S             Small phytoplankton NO3 half saturation constant
                                 (mmole_N/m3).
 1.0000E+00  KNO3L             Large phytoplankton NO3 half saturation constant
                                 (mmole_N/m3).
 1.0000E-01  KNH4S             Small phytoplankton NH4 half saturation constant
                                 (mmole_N/m3).
 3.0000E-01  KNH4L             Large phytoplankton NH4 half saturation constant
                                 (mmole_N/m3).
 3.0000E+00  KSiL              Small phytoplankton SiOH4 half saturation constant
                                 (mmole_Si/m3).
 1.5000E+00  PusaiS            Small phytoplankton NH4 inhibition coefficient
                                 (m3/mmole_N).
 1.5000E+00  PusaiL            Large phytoplankton NH4 inhibition coefficient
                                 (m3/mmole_N).
 6.9300E-02  KGppS             Small phytoplankton temperature coefficient for
                                 photosynthetic rate (1/Celsius).
 6.9300E-02  KGppL             Large phytoplankton temperature coefficient for
                                 photosynthetic rate (1/Celsius).
 3.0000E-02  ResPS0            Small phytoplankton respiration rate (1/day).
 3.0000E-02  ResPL0            Large phytoplankton respiration rate (1/day).
 5.1900E-02  KResPS            Small phytoplankton temperature coefficient for
                                 respiration (1/Celsius).
 5.1900E-02  KResPL            Large phytoplankton temperature coefficient for
                                 respiration (1/Celsius).
 1.3500E-01  GammaS            Small phytoplankton ratio of extracellular
                                 excretion to photosynthesis (nondimensional).
 1.3500E-01  GammaL            Large phytoplankton ratio of extracellular
                                 excretion to photosynthesis (nondimensional).
 5.0000E-02  MorPS0            Small phytoplankton mortality rate
                                 (m3/mmole_N/day).
 2.0000E-02  MorPL0            Large phytoplankton mortality rate
                                 (m3/mmole_N/day).
 6.9300E-02  KMorPS            Small phytoplankton temperature coefficient for
                                 mortality (1/Celsius).
 6.9300E-02  KMorPL            Large phytoplankton temperature coefficient for
                                 mortality (1/Celsius).
 4.0000E-01  GRmaxSps          Small zooplankton grazing rate on small
                                 phytoplankton (1/day).
 2.0000E-01  GRmaxSpl          Small zooplankton grazing rate on large
                                 phytoplankton (1/day).
 1.0000E-01  GRmaxLps          Large zooplankton grazing rate on small
                                 phytoplankton (1/day).
 3.0000E-01  GRmaxLpl          Large zooplankton grazing rate on large
                                 phytoplankton (1/day).
 1.0000E-01  GRmaxLzs          Large zooplankton grazing rate on small
                                 zooplankton (1/day).
 3.0000E-01  GRmaxPpl          Predator zooplankton grazing rate on large
                                 phytoplankton (1/day).
 0.0000E+00  GRmaxPzs          Predator zooplankton grazing rate on small
                                 zooplankton (1/day).
 1.0000E-01  GRmaxPzl          Predator zooplankton grazing rate on large
                                 zooplankton (1/day).
 6.9300E-02  KGraS             Small zooplankton temperature coefficient for
                                 grazing (1/Celsius).
 6.9300E-02  KGraL             Large zooplankton temperature coefficient for
                                 grazing (1/Celsius).
 6.9300E-02  KGraP             Predator zooplankton temperature coefficient for
                                 grazing (1/Celsius).
 1.4000E+00  LamS              Small zooplankton grazing Ivlev constant
                                 (m3/mmole_N).
 1.4000E+00  LamL              Large zooplankton grazing Ivlev constant
                                 (m3/mmole_N).
 1.0000E+00  LamP              Preditor zooplankton grazing Ivlev constant
                                 (m3/mmole_N).
 1.0000E-01  KPS2ZS            Half-saturation constant for small zooplankton
                                 grazing on small phytoplankton (mmole_N/m3)^2.
 2.0000E-01  KPL2ZS            Half-saturation constant for small zooplankton
                                 grazing on large phytoplankton (mmole_N/m3)^2.
 1.0000E-01  KPS2ZL            Half-saturation constant for large zooplankton
                                 grazing on small phytoplankton (mmole_N/m3)^2.
 2.0000E-01  KPL2ZL            Half-saturation constant for large zooplankton
                                 grazing on large phytoplankton (mmole_N/m3)^2.
 5.0000E-01  KZS2ZL            Half-saturation constant for large zooplankton
                                 grazing on small zooplankton (mmole_N/m3)^2.
 2.0000E-01  KPL2ZP            Half-saturation constant for predator zooplankton
                                 grazing on large phytoplankton (mmole_N/m3)^2.
 5.0000E-01  KZS2ZP            Half-saturation constant for predator zooplankton
                                 grazing on small zooplankton (mmole_N/m3)^2.
 8.0000E-01  KZL2ZP            Half-saturation constant for predator zooplankton
                                 grazing on large zooplankton (mmole_N/m3)^2.
 0.0000E+00  PusauPL           Predator zooplankton grazing inhibition on large
                                 phytoplankton (mmole_N/m3).
 0.0000E+00  PusauZS           Predator zooplankton grazing inhibition on small
                                 zootoplankton (mmole_N/m3).
 5.8500E-02  MorZS0            Small zooplankton mortality rate at 0 Celsius
                                 (m3/mmole_N/day).
 5.8500E-02  MorZL0            Large zooplankton mortality rate at 0 Celsius
                                 (m3/mmole_N/day).
 5.8500E-02  MorZP0            Predator zooplankton mortality rate at 0 Celsius
                                 (m3/mmole_N/day).
 6.9300E-02  KMorZS            Small zooplankton temperature coefficient for
                                 mortality (1/Celsius).
 6.9300E-02  KMorZL            Large zooplankton temperature coefficient for
                                 mortality (1/Celsius).
 6.9300E-02  KMorZP            Predator zooplankton temperature coefficient for
                                 mortality (1/Celsius).
 7.0000E-01  AlphaZS           Small zooplankton assimilation efficiency
                                 (nondimensional).
 7.0000E-01  AlphaZL           Large zooplankton assimilation efficiency
                                 (nondimensional).
 7.0000E-01  AlphaZP           Predator zooplankton assimilation efficiency
                                 (nondimensional).
 3.0000E-01  BetaZS            Small zooplankton growth efficiency
                                 (nondimensional).
 3.0000E-01  BetaZL            Large zooplankton growth efficiency
                                 (nondimensional).
 3.0000E-01  BetaZP            Predator zooplankton growth efficiency
                                 (nondimensional).
 3.0000E-02  Nit0              NH4 to NO3 decomposition rate (1/day).
 1.0000E-01  VP2N0             PON to NH4 decomposition rate (1/day).
 1.0000E-01  VP2D0             PON to DON decomposition rate (1/day).
 2.0000E-02  VD2N0             DON to NH4 decomposition rate (1/day).
 1.0000E-01  VO2S0             Opal to SiOH4 decomposition rate (1/day).
 6.9300E-02  KNit              Temperature coefficient for NH4 to NO3
                                 decomposition (1/Celsius).
 6.9300E-02  KP2D              Temperature coefficient for PON to DON
                                 decomposition (1/Celsius).
 6.9300E-02  KP2N              Temperature coefficient for PON to NH4
                                 decomposition (1/Celsius).
 6.9300E-02  KD2N              Temperature coefficient for DON to NH4
                                 decomposition (1/Celsius).
 6.9300E-02  KO2S              Temperature coefficient for Opal to SiOH4
                                 decomposition (1/Celsius).
 1.0000E+00  RSiN              Si:N ratio (mmole_Si/mmole_N)
 4.0000E+01  setVPON           PON sinking velocity (m/day).
 4.0000E+01  setVOpal          Opal sinking velocity (m/day).
 4.0000E+00  nl_tnu2(03)       NLM Horizontal, harmonic mixing coefficient
                                 (m2/s) for tracer 03: nanophytoplankton
 4.0000E+00  nl_tnu2(04)       NLM Horizontal, harmonic mixing coefficient
                                 (m2/s) for tracer 04: diatom
 4.0000E+00  nl_tnu2(05)       NLM Horizontal, harmonic mixing coefficient
                                 (m2/s) for tracer 05: microzooplankton
 4.0000E+00  nl_tnu2(06)       NLM Horizontal, harmonic mixing coefficient
                                 (m2/s) for tracer 06: mesozooplankton
 4.0000E+00  nl_tnu2(07)       NLM Horizontal, harmonic mixing coefficient
                                 (m2/s) for tracer 07: Pzooplankton
 4.0000E+00  nl_tnu2(08)       NLM Horizontal, harmonic mixing coefficient
                                 (m2/s) for tracer 08: NO3
 4.0000E+00  nl_tnu2(09)       NLM Horizontal, harmonic mixing coefficient
                                 (m2/s) for tracer 09: NH4
 4.0000E+00  nl_tnu2(10)       NLM Horizontal, harmonic mixing coefficient
                                 (m2/s) for tracer 10: PON
 4.0000E+00  nl_tnu2(11)       NLM Horizontal, harmonic mixing coefficient
                                 (m2/s) for tracer 11: DON
 4.0000E+00  nl_tnu2(12)       NLM Horizontal, harmonic mixing coefficient
                                 (m2/s) for tracer 12: SiOH4
 4.0000E+00  nl_tnu2(13)       NLM Horizontal, harmonic mixing coefficient
                                 (m2/s) for tracer 13: opal
          F  LtracerSponge(03) Turning OFF sponge on tracer 03: nanophytoplankton
          F  LtracerSponge(04) Turning OFF sponge on tracer 04: diatom
          F  LtracerSponge(05) Turning OFF sponge on tracer 05: microzooplankton
          F  LtracerSponge(06) Turning OFF sponge on tracer 06: mesozooplankton
          F  LtracerSponge(07) Turning OFF sponge on tracer 07: Pzooplankton
          F  LtracerSponge(08) Turning OFF sponge on tracer 08: NO3
          F  LtracerSponge(09) Turning OFF sponge on tracer 09: NH4
          F  LtracerSponge(10) Turning OFF sponge on tracer 10: PON
          F  LtracerSponge(11) Turning OFF sponge on tracer 11: DON
          F  LtracerSponge(12) Turning OFF sponge on tracer 12: SiOH4
          F  LtracerSponge(13) Turning OFF sponge on tracer 13: opal
 1.0000E-05  Akt_bak(03)       Background vertical mixing coefficient (m2/s)
                                 for tracer 03: nanophytoplankton
 1.0000E-05  Akt_bak(04)       Background vertical mixing coefficient (m2/s)
                                 for tracer 04: diatom
 1.0000E-05  Akt_bak(05)       Background vertical mixing coefficient (m2/s)
                                 for tracer 05: microzooplankton
 1.0000E-05  Akt_bak(06)       Background vertical mixing coefficient (m2/s)
                                 for tracer 06: mesozooplankton
 1.0000E-05  Akt_bak(07)       Background vertical mixing coefficient (m2/s)
                                 for tracer 07: Pzooplankton
 1.0000E-05  Akt_bak(08)       Background vertical mixing coefficient (m2/s)
                                 for tracer 08: NO3
 1.0000E-05  Akt_bak(09)       Background vertical mixing coefficient (m2/s)
                                 for tracer 09: NH4
 1.0000E-05  Akt_bak(10)       Background vertical mixing coefficient (m2/s)
                                 for tracer 10: PON
 1.0000E-05  Akt_bak(11)       Background vertical mixing coefficient (m2/s)
                                 for tracer 11: DON
 1.0000E-05  Akt_bak(12)       Background vertical mixing coefficient (m2/s)
                                 for tracer 12: SiOH4
 1.0000E-05  Akt_bak(13)       Background vertical mixing coefficient (m2/s)
                                 for tracer 13: opal
 1.0000E+01  Tnudg(03)         Nudging/relaxation time scale (days)
                                 for tracer 03: nanophytoplankton
 1.0000E+01  Tnudg(04)         Nudging/relaxation time scale (days)
                                 for tracer 04: diatom
 1.0000E+01  Tnudg(05)         Nudging/relaxation time scale (days)
                                 for tracer 05: microzooplankton
 1.0000E+01  Tnudg(06)         Nudging/relaxation time scale (days)
                                 for tracer 06: mesozooplankton
 1.0000E+01  Tnudg(07)         Nudging/relaxation time scale (days)
                                 for tracer 07: Pzooplankton
 1.0000E+01  Tnudg(08)         Nudging/relaxation time scale (days)
                                 for tracer 08: NO3
 1.0000E+01  Tnudg(09)         Nudging/relaxation time scale (days)
                                 for tracer 09: NH4
 1.0000E+01  Tnudg(10)         Nudging/relaxation time scale (days)
                                 for tracer 10: PON
 1.0000E+01  Tnudg(11)         Nudging/relaxation time scale (days)
                                 for tracer 11: DON
 1.0000E+01  Tnudg(12)         Nudging/relaxation time scale (days)
                                 for tracer 12: SiOH4
 1.0000E+01  Tnudg(13)         Nudging/relaxation time scale (days)
                                 for tracer 13: opal
          F  LtracerSrc(03)    Turning OFF point sources/Sink on tracer 03: nanophytoplankton
          F  LtracerSrc(04)    Turning OFF point sources/Sink on tracer 04: diatom
          F  LtracerSrc(05)    Turning OFF point sources/Sink on tracer 05: microzooplankton
          F  LtracerSrc(06)    Turning OFF point sources/Sink on tracer 06: mesozooplankton
          F  LtracerSrc(07)    Turning OFF point sources/Sink on tracer 07: Pzooplankton
          F  LtracerSrc(08)    Turning OFF point sources/Sink on tracer 08: NO3
          F  LtracerSrc(09)    Turning OFF point sources/Sink on tracer 09: NH4
          F  LtracerSrc(10)    Turning OFF point sources/Sink on tracer 10: PON
          F  LtracerSrc(11)    Turning OFF point sources/Sink on tracer 11: DON
          F  LtracerSrc(12)    Turning OFF point sources/Sink on tracer 12: SiOH4
          F  LtracerSrc(13)    Turning OFF point sources/Sink on tracer 13: opal
          F  LtracerCLM(03)    Turning OFF processing of climatology tracer 03: nanophytoplankton
          F  LtracerCLM(04)    Turning OFF processing of climatology tracer 04: diatom
          F  LtracerCLM(05)    Turning OFF processing of climatology tracer 05: microzooplankton
          F  LtracerCLM(06)    Turning OFF processing of climatology tracer 06: mesozooplankton
          F  LtracerCLM(07)    Turning OFF processing of climatology tracer 07: Pzooplankton
          F  LtracerCLM(08)    Turning OFF processing of climatology tracer 08: NO3
          F  LtracerCLM(09)    Turning OFF processing of climatology tracer 09: NH4
          F  LtracerCLM(10)    Turning OFF processing of climatology tracer 10: PON
          F  LtracerCLM(11)    Turning OFF processing of climatology tracer 11: DON
          F  LtracerCLM(12)    Turning OFF processing of climatology tracer 12: SiOH4
          F  LtracerCLM(13)    Turning OFF processing of climatology tracer 13: opal
          F  LnudgeTCLM(03)    Turning OFF nudging of climatology tracer 03: nanophytoplankton
          F  LnudgeTCLM(04)    Turning OFF nudging of climatology tracer 04: diatom
          F  LnudgeTCLM(05)    Turning OFF nudging of climatology tracer 05: microzooplankton
          F  LnudgeTCLM(06)    Turning OFF nudging of climatology tracer 06: mesozooplankton
          F  LnudgeTCLM(07)    Turning OFF nudging of climatology tracer 07: Pzooplankton
          F  LnudgeTCLM(08)    Turning OFF nudging of climatology tracer 08: NO3
          F  LnudgeTCLM(09)    Turning OFF nudging of climatology tracer 09: NH4
          F  LnudgeTCLM(10)    Turning OFF nudging of climatology tracer 10: PON
          F  LnudgeTCLM(11)    Turning OFF nudging of climatology tracer 11: DON
          F  LnudgeTCLM(12)    Turning OFF nudging of climatology tracer 12: SiOH4
          F  LnudgeTCLM(13)    Turning OFF nudging of climatology tracer 13: opal
          T  Hout(idTvar)      Write out tracer 03: nanophytoplankton
          T  Hout(idTvar)      Write out tracer 04: diatom
          T  Hout(idTvar)      Write out tracer 05: microzooplankton
          T  Hout(idTvar)      Write out tracer 06: mesozooplankton
          T  Hout(idTvar)      Write out tracer 07: Pzooplankton
          T  Hout(idTvar)      Write out tracer 08: NO3
          T  Hout(idTvar)      Write out tracer 09: NH4
          T  Hout(idTvar)      Write out tracer 10: PON
          T  Hout(idTvar)      Write out tracer 11: DON
          T  Hout(idTvar)      Write out tracer 12: SiOH4
          T  Hout(idTvar)      Write out tracer 13: opal

          T  Aout(idTvar)      Write out averaged tracer 03: nanophytoplankton
          T  Aout(idTvar)      Write out averaged tracer 04: diatom
          T  Aout(idTvar)      Write out averaged tracer 05: microzooplankton
          T  Aout(idTvar)      Write out averaged tracer 06: mesozooplankton
          T  Aout(idTvar)      Write out averaged tracer 07: Pzooplankton
          T  Aout(idTvar)      Write out averaged tracer 08: NO3
          T  Aout(idTvar)      Write out averaged tracer 09: NH4
          T  Aout(idTvar)      Write out averaged tracer 10: PON
          T  Aout(idTvar)      Write out averaged tracer 11: DON
          T  Aout(idTvar)      Write out averaged tracer 12: SiOH4
          T  Aout(idTvar)      Write out averaged tracer 13: opal

 Lateral Boundary Conditions: NLM
 ============================

 Variable               Grid  West Edge    South Edge   East Edge    North Edge
 ---------              ----  ----------   ----------   ----------   ----------

 zeta                     1   Chapman Imp  Chapman Imp  Closed       Chapman Imp

 ubar                     1   Flather      Flather      Closed       Flather

 vbar                     1   Flather      Flather      Closed       Flather

 u                        1   Rad + Nud    Rad + Nud    Closed       Rad + Nud

 v                        1   Rad + Nud    Rad + Nud    Closed       Rad + Nud

 temp                     1   Rad + Nud    Rad + Nud    Closed       Rad + Nud

 salt                     1   Rad + Nud    Rad + Nud    Closed       Rad + Nud

 nanophytoplankton        1   Rad + Nud    Rad + Nud    Closed       Rad + Nud

 diatom                   1   Rad + Nud    Rad + Nud    Closed       Rad + Nud

 microzooplankton         1   Rad + Nud    Rad + Nud    Closed       Rad + Nud

 mesozooplankton          1   Rad + Nud    Rad + Nud    Closed       Rad + Nud

 Pzooplankton             1   Rad + Nud    Rad + Nud    Closed       Rad + Nud

 NO3                      1   Rad + Nud    Rad + Nud    Closed       Rad + Nud

 NH4                      1   Rad + Nud    Rad + Nud    Closed       Rad + Nud

 PON                      1   Rad + Nud    Rad + Nud    Closed       Rad + Nud

 DON                      1   Rad + Nud    Rad + Nud    Closed       Rad + Nud

 SiOH4                    1   Rad + Nud    Rad + Nud    Closed       Rad + Nud

 opal                     1   Rad + Nud    Rad + Nud    Closed       Rad + Nud

 Activated C-preprocessing Options:

 CCS1                California Current
 ADD_FSOBC           Adding tidal elevation to processed OBC data.
 ADD_M2OBC           Adding tidal currents to processed OBC data.
 ALBEDO_CURVE        Shortwave radiation adjusted by albedo curve.
 ANA_BPFLUX          Analytical bottom passive tracers fluxes.
 ANA_BSFLUX          Analytical kinematic bottom salinity flux.
 ANA_BTFLUX          Analytical kinematic bottom temperature flux.
 ANA_NUDGCOEF        Analytical spatially varying nudging time-scales.
 ANA_SPFLUX          Analytical surface passive tracer fluxes.
 ASSUMED_SHAPE       Using assumed-shape arrays.
 AVERAGES            Writing out time-averaged nonlinear model fields.
 BULK_FLUXES         Surface bulk fluxes parameterization.
 CCSM_FLUXES         Surface bulk fluxes parametererization.
 CORE_FORCING        Humidity from CORE forcing files.
 CURVGRID            Orthogonal curvilinear grid.
 DIFF_GRID           Horizontal diffusion coefficient scaled by grid size.
 DIURNAL_SRFLUX      Modulate shortwave radiation by the local diurnal cycle.
 DJ_GRADPS           Parabolic Splines density Jacobian (Shchepetkin, 2002).
 DOUBLE_PRECISION    Double precision arithmetic.
 EGGS_BISECTION      Bisection method for egg distribution.
 EMINUSP             Compute Salt Flux using E-P.
 FILTERED            Writing out time-filtered output.
 FISH_FEEDBACK       Fish model feedback to NPZ model.
 FISHING_FLEET       Fishing fleet preying on model fish.
 HOLLING_GRAZING     Holling-type s-shaped grazing algorithm, Implicit.
 LIMIT_BSTRESS       Limit bottom stress to maintain bottom velocity direction.
 LMD_CONVEC          LMD convective mixing due to shear instability.
 LMD_MIXING          Large/McWilliams/Doney interior mixing.
 LMD_NONLOCAL        LMD convective nonlocal transport.
 LMD_RIMIX           LMD diffusivity due to shear instability.
 LMD_SHAPIRO         Shapiro filtering boundary layer depth.
 LMD_SKPP            KPP surface boundary layer mixing.
 LONGWAVE_OUT        Compute outgoing longwave radiation internally.
 MASKING             Land/Sea masking.
 MIX_GEO_TS          Mixing of tracers along geopotential surfaces.
 MIX_S_UV            Mixing of momentum along constant S-surfaces.
 MPI                 MPI distributed-memory configuration.
 NEMURO              Nemuro Lower Trophic Level Ecosystem Model.
 NEMURO_SAN          Nemuro with sardine and anchovy fish model.
 NONLINEAR           Nonlinear Model.
 NONLIN_EOS          Nonlinear Equation of State for seawater.
 NO_WRITE_GRID       Not Writing grid arrays into NetCDF ouput files.
 POT_TIDES           Add tidal potential terms to the forcing.
 POWER_LAW           Power-law shape time-averaging barotropic filter.
 PREDATOR            Predators on the fish.
 PROFILE             Time profiling activated .
 RUNOFF              Surface flux of ungauged river runoff.
 RADIATION_2D        Use tangential phase speed in radiation conditions.
 RST_SINGLE          Single precision fields in restart NetCDF file.
 SALINITY            Using salinity.
 SRELAXATION         Surface salinity relaxation as surface flux.
 SOLAR_SOURCE        Solar Radiation Source Term.
 SOLVE3D             Solving 3D Primitive Equations.
 SPLINES             Conservative parabolic spline reconstruction.
 SSH_TIDES           Add tidal elevation to SSH climatology.
 TIDES_ASTRO         Compute astronomical (long-period tide) corrections.
 TS_U3HADVECTION     Third-order upstream horizontal advection of tracers.
 TS_SVADVECTION      Parabolic splines vertical advection of tracers.
 TS_DIF2             Harmonic mixing of tracers.
 UV_ADV              Advection of momentum.
 UV_COR              Coriolis term.
 UV_U3HADVECTION     Third-order upstream horizontal advection of 3D momentum.
 UV_C4VADVECTION     Fourth-order centered vertical advection of momentum.
 UV_QDRAG            Quadratic bottom stress.
 UV_TIDES            Add tidal currents to 2D momentum climatologies.
 UV_VIS2             Harmonic mixing of momentum.
 VAR_RHO_2D          Variable density barotropic mode.
 VISC_GRID           Horizontal viscosity coefficient scaled by grid size.


 Fish Initial Locations, Grid: 01
 ==================================

               Ft0     Fx0     Fy0     Fz0      Fdt      Fdx      Fdy      Fdz


      20000  Nfish           Number of fish trajectories to compute.

       1000  Nfishperyear    Number of fish per year per species.

          2  Nspecies        Number of fish species.

         10  Nyearclass      Number of year classes per species.

      20000  Npos            Number of fish initial positions.
 
 PARAMETERS FOR SPECIES            1
 --------------------------------------
 1.2000E+01  Fwwt0           Fish initial wet weight (g).

 2.5000E+04  Fwth0           Fish initial worth (millions of fishes).

 1.0000E+00  Fspstr          Fish start of spawning season (yearday).

 1.2100E+02  Fspend          Fish end of spawning season (yearday).

 1.1500E+01  FspTmin         Min temperature for pawning season (C).

 1.6500E+01  FspTmax         Max temperature for pawning season (C).


          4  Hbehave         Fish horizontal behavior

          4  Vbehave         Fish vertical behavior
 1.0000E+00  ZSpref_L        Larva ZSpref

 2.0000E-01  ZSpref_J        Juven ZSpref

 2.0000E-01  ZSpref_A        Adult ZSpref

 5.0000E-01  ZLpref_L        Larva ZLpref

 1.0000E+00  ZLpref_J        Juven ZLpref

 4.0000E-01  ZLpref_A        Adult ZLpref

 0.0000E+00  ZPpref_L        Larva ZPpref

 2.0000E-01  ZPpref_J        Juven ZPpref

 1.0000E+00  ZPpref_A        Adult ZPpref

 1.0000E-02  K_ZS_L          Larva K_ZS

 1.0000E-01  K_ZS_J          Juven K_ZS

 1.0000E-01  K_ZS_A          Adult K_ZS

 1.0000E-02  K_ZL_L          Larva K_ZL

 1.0000E-01  K_ZL_J          Juven K_ZL

 1.0000E-01  K_ZL_A          Adult K_ZL

 9.9900E+02  K_ZP_L          Larva K_ZP

 1.0000E-01  K_ZP_J          Juven K_ZP

 1.0000E-01  K_ZP_A          Adult K_ZP

 3.8000E+03  Cal_Z           Zoop energy content

 8.0000E+03  Cal_F           Fish energy content

 1.4430E-01  a_C_L           Larva consumption

 1.4430E-01  a_C_J           Juven consumption

 3.3070E-01  a_C_A           Adult consumption

 3.2600E-01  b_C_L           Larva consumption

 3.2600E-01  b_C_J           Juven consumption

 7.6230E-01  b_C_A           Adult consumption

 1.0000E+00  pvalmax_L       Larva Max Pvalue

 9.0000E-01  pvalmax_J       Juven Max Pvalue

 9.0000E-01  pvalmax_A       Adult Max Pvalue

 3.1900E-03  a_R_L           Larva respiration

 2.9300E-03  a_R_J           Juven respiration

 2.9300E-03  a_R_A           Adult respiration

 1.7800E-01  b_R_L           Larva respiration

 1.9000E-01  b_R_J           Juven respiration

 1.9000E-01  b_R_A           Adult respiration

 1.7000E+00  activity_L      Larva activity

 1.6000E+00  activity_J      Juven activity

 1.5000E+00  activity_A      Adult activity

 9.9900E+02  d_R_L           Larva swimming

 9.9900E+02  d_R_J           Juven swimming

 9.9900E+02  d_R_A           Adult swimming

 3.0000E+00  Fswim_L         Larva swimming

 3.0000E+00  Fswim_J         Juven swimming

 3.0000E+00  Fswim_A         Adult swimming

 7.0610E-01  a_AE_L          Larva assimilation

 7.0610E-01  a_AE_J          Juven assimilation

 7.0610E-01  a_AE_A          Adult assimilation

 4.6700E-02  b_AE_L          Larva assimilation

 4.6700E-02  b_AE_J          Juven assimilation

 4.6700E-02  b_AE_A          Adult assimilation

 8.0000E-01  AEmax_L         Larva assimilation

 8.0000E-01  AEmax_J         Juven assimilation

 8.0000E-01  AEmax_A         Adult assimilation

 5.0000E+00  te1_L           Larva temperature dependence

 5.0000E+00  te1_J           Juven temperature dependence

 5.0000E+00  te1_A           Adult temperature dependence

 1.5000E+01  te2_L           Larva temperature dependence

 1.7000E+01  te2_J           Juven temperature dependence

 1.7000E+01  te2_A           Adult temperature dependence

 1.8000E+01  te3_L           Larva temperature dependence

 1.9000E+01  te3_J           Juven temperature dependence

 1.9000E+01  te3_A           Adult temperature dependence

 2.5000E+01  te4_L           Larva temperature dependence

 2.5000E+01  te4_J           Juven temperature dependence

 2.5000E+01  te4_A           Adult temperature dependence

 1.0000E-01  xk1_L           Larva temperature dependence

 1.0000E-01  xk1_J           Juven temperature dependence

 1.0000E-01  xk1_A           Adult temperature dependence

 9.8000E-01  xk2_L           Larva temperature dependence

 9.8000E-01  xk2_J           Juven temperature dependence

 9.8000E-01  xk2_A           Adult temperature dependence

 9.8000E-01  xk3_L           Larva temperature dependence

 9.8000E-01  xk3_J           Juven temperature dependence

 9.8000E-01  xk3_A           Adult temperature dependence

 1.0000E-02  xk4_L           Larva temperature dependence

 1.0000E-02  xk4_J           Juven temperature dependence

 1.0000E-02  xk4_A           Adult temperature dependence

 1.1000E-01  cr_L            Adult temperature dependence

 2.0000E-02  cr_J            Adult temperature dependence

 2.0000E-02  cr_A            Adult temperature dependence

 1.5500E+01  tr_L            Adult temperature dependence

 1.7000E+01  tr_J            Adult temperature dependence

 1.7000E+01  tr_A            Adult temperature dependence

 8.7500E-05  Wffeed          Weight at first feeding

 4.3000E+00  Lffeed          Length at first feeding

 3.0500E-01  WeightLJ        Weight for L to J transition

 3.5000E+01  LengthLJ        Length for L to J transition

 6.7500E+00  WeightJA        Weight for J to A transition

 8.5000E+01  LengthJA        Length for J to A transition

 2.9930E-07  aw2l_L          Larva weight-length conversion

 1.2720E-06  aw2l_J          Juven weight-length conversion

 6.5000E-05  aw2l_A          Adult weight-length conversion

 3.8910E+00  bw2l_L          Larva weight-length conversion

 3.4840E+00  bw2l_J          Juven weight-length conversion

 2.6000E+00  bw2l_A          Adult weight-length conversion

 2.1000E-02  dSLk_L          Larva weight-length conversion

 2.1000E-02  dSLk_J          Juven weight-length conversion

 2.2000E-03  dSLk_A          Adult weight-length conversion

 9.1500E+01  dSLinf_L        Larva weight-length conversion

 9.1500E+01  dSLinf_J        Juven weight-length conversion

 1.4500E+02  dSLinf_A        Adult weight-length conversion

 2.9930E-07  al2w_L          Larva weight-length conversion

 1.2720E-06  al2w_J          Juven weight-length conversion

 6.5000E-05  al2w_A          Adult weight-length conversion

 3.8910E+00  bl2w_L          Larva weight-length conversion

 3.4840E+00  bl2w_J          Juven weight-length conversion

 2.6000E+00  bl2w_A          Adult weight-length conversion

 7.0000E+00  abatch          Batch duration

 1.5000E-02  bbatch          Batch duration

 1.3250E+01  T0batch         Batch duration

 3.0000E+00  apof            Batch duration

 1.5000E-02  bpof            Batch duration

 1.3250E+01  T0pof           Batch duration

 3.9000E+02  epg             Batch size

 4.5000E+03  eegg            Batch size

 1.5000E-04  megg            Batch size

 3.0000E+00  breed           Breeding strategy

-1.1160E+01  amature         Maturity

 1.1450E-01  bmature         Maturity

 5.0000E-01  pctxwt          Weight percentage

 5.0000E-01  pctgain         Gain percentage

 2.3000E-01  Nmort_E         Egg daily natural mortality

 3.7000E-01  Nmort_Y         Yolksac daily natural mortality

 1.4000E-01  Nmort_L         Larva daily natural mortality

 9.0000E-03  Nmort_J         Juven daily natural mortality

 7.0000E-01  Nmort_A         Adult yearly natural mortality

 0.0000E+00  Fymort          Fishing mortality

 
 PARAMETERS FOR SPECIES            2
 --------------------------------------
 4.0000E+01  Fwwt0           Fish initial wet weight (g).

 5.0000E+03  Fwth0           Fish initial worth (millions of fishes).

 3.2000E+01  Fspstr          Fish start of spawning season (yearday).

 1.8200E+02  Fspend          Fish end of spawning season (yearday).

 1.2000E+01  FspTmin         Min temperature for pawning season (C).

 1.5000E+01  FspTmax         Max temperature for pawning season (C).


          4  Hbehave         Fish horizontal behavior

          4  Vbehave         Fish vertical behavior
 1.0000E+00  ZSpref_L        Larva ZSpref

 1.0000E+00  ZSpref_J        Juven ZSpref

 1.0000E+00  ZSpref_A        Adult ZSpref

 1.0000E-01  ZLpref_L        Larva ZLpref

 2.0000E-01  ZLpref_J        Juven ZLpref

 4.0000E-01  ZLpref_A        Adult ZLpref

 0.0000E+00  ZPpref_L        Larva ZPpref

 2.0000E-01  ZPpref_J        Juven ZPpref

 2.0000E-01  ZPpref_A        Adult ZPpref

 8.0000E-02  K_ZS_L          Larva K_ZS

 4.0000E-02  K_ZS_J          Juven K_ZS

 4.0000E-02  K_ZS_A          Adult K_ZS

 8.0000E-02  K_ZL_L          Larva K_ZL

 4.0000E-02  K_ZL_J          Juven K_ZL

 4.0000E-02  K_ZL_A          Adult K_ZL

 9.9900E+02  K_ZP_L          Larva K_ZP

 4.0000E-02  K_ZP_J          Juven K_ZP

 4.0000E-02  K_ZP_A          Adult K_ZP

 3.8000E+03  Cal_Z           Zoop energy content

 8.0000E+03  Cal_F           Fish energy content

 2.4000E-01  a_C_L           Larva consumption

 2.4000E-01  a_C_J           Juven consumption

 2.4000E-01  a_C_A           Adult consumption

 4.5500E-01  b_C_L           Larva consumption

 4.5500E-01  b_C_J           Juven consumption

 4.5500E-01  b_C_A           Adult consumption

 1.0000E+00  pvalmax_L       Larva Max Pvalue

 9.5000E-01  pvalmax_J       Juven Max Pvalue

 9.0000E-01  pvalmax_A       Adult Max Pvalue

 3.3000E-03  a_R_L           Larva respiration

 3.3000E-03  a_R_J           Juven respiration

 3.3000E-03  a_R_A           Adult respiration

 1.5000E-01  b_R_L           Larva respiration

 1.5000E-01  b_R_J           Juven respiration

 1.5000E-01  b_R_A           Adult respiration

 0.0000E+00  activity_L      Larva activity

 0.0000E+00  activity_J      Juven activity

 0.0000E+00  activity_A      Adult activity

 3.0000E-03  d_R_L           Larva swimming

 3.0000E-03  d_R_J           Juven swimming

 3.0000E-03  d_R_A           Adult swimming

 3.0000E+00  Fswim_L         Larva swimming

 3.0000E+00  Fswim_J         Juven swimming

 3.0000E+00  Fswim_A         Adult swimming

 6.0000E-01  a_AE_L          Larva assimilation

 6.0000E-01  a_AE_J          Juven assimilation

 6.0000E-01  a_AE_A          Adult assimilation

 4.0000E-02  b_AE_L          Larva assimilation

 4.0000E-02  b_AE_J          Juven assimilation

 4.0000E-02  b_AE_A          Adult assimilation

 7.0000E-01  AEmax_L         Larva assimilation

 7.0000E-01  AEmax_J         Juven assimilation

 7.0000E-01  AEmax_A         Adult assimilation

 1.0000E+01  te1_L           Larva temperature dependence

 1.0000E+01  te1_J           Juven temperature dependence

 1.0000E+01  te1_A           Adult temperature dependence

 1.2000E+01  te2_L           Larva temperature dependence

 1.2000E+01  te2_J           Juven temperature dependence

 1.2000E+01  te2_A           Adult temperature dependence

 1.6000E+01  te3_L           Larva temperature dependence

 1.6000E+01  te3_J           Juven temperature dependence

 1.6000E+01  te3_A           Adult temperature dependence

 2.2000E+01  te4_L           Larva temperature dependence

 2.7000E+01  te4_J           Juven temperature dependence

 2.7000E+01  te4_A           Adult temperature dependence

 1.0000E-01  xk1_L           Larva temperature dependence

 1.0000E-01  xk1_J           Juven temperature dependence

 1.0000E-01  xk1_A           Adult temperature dependence

 9.8000E-01  xk2_L           Larva temperature dependence

 9.8000E-01  xk2_J           Juven temperature dependence

 9.8000E-01  xk2_A           Adult temperature dependence

 9.8000E-01  xk3_L           Larva temperature dependence

 9.8000E-01  xk3_J           Juven temperature dependence

 9.8000E-01  xk3_A           Adult temperature dependence

 1.0000E-02  xk4_L           Larva temperature dependence

 1.0000E-02  xk4_J           Juven temperature dependence

 1.0000E-02  xk4_A           Adult temperature dependence

 3.0000E-03  cr_L            Adult temperature dependence

 3.0000E-03  cr_J            Adult temperature dependence

 3.0000E-03  cr_A            Adult temperature dependence

 0.0000E+00  tr_L            Adult temperature dependence

 0.0000E+00  tr_J            Adult temperature dependence

 0.0000E+00  tr_A            Adult temperature dependence

 1.5300E-03  Wffeed          Weight at first feeding

 6.0000E+00  Lffeed          Length at first feeding

 3.9500E-01  WeightLJ        Weight for L to J transition

 3.5000E+01  LengthLJ        Length for L to J transition

 3.9500E-01  WeightJA        Weight for J to A transition

 3.5000E+01  LengthJA        Length for J to A transition

 5.4000E-06  aw2l_L          Larva weight-length conversion

 5.4000E-06  aw2l_J          Juven weight-length conversion

 5.4000E-06  aw2l_A          Adult weight-length conversion

 3.1500E+00  bw2l_L          Larva weight-length conversion

 3.1500E+00  bw2l_J          Juven weight-length conversion

 3.1500E+00  bw2l_A          Adult weight-length conversion

 3.2600E-03  dSLk_L          Larva weight-length conversion

 3.2600E-03  dSLk_J          Juven weight-length conversion

 3.2600E-03  dSLk_A          Adult weight-length conversion

 2.0600E+02  dSLinf_L        Larva weight-length conversion

 2.0600E+02  dSLinf_J        Juven weight-length conversion

 2.0600E+02  dSLinf_A        Adult weight-length conversion

 5.4000E-06  al2w_L          Larva weight-length conversion

 5.4000E-06  al2w_J          Juven weight-length conversion

 5.4000E-06  al2w_A          Adult weight-length conversion

 3.1500E+00  bl2w_L          Larva weight-length conversion

 3.1500E+00  bl2w_J          Juven weight-length conversion

 3.1500E+00  bl2w_A          Adult weight-length conversion

 1.1000E+01  abatch          Batch duration

 1.5000E-02  bbatch          Batch duration

 1.2600E+01  T0batch         Batch duration

 5.0000E+00  apof            Batch duration

 1.5000E-02  bpof            Batch duration

 8.0000E+00  T0pof           Batch duration

 2.6000E+02  epg             Batch size

 4.5000E+03  eegg            Batch size

 2.7800E-04  megg            Batch size

 3.0000E+00  breed           Breeding strategy

-1.8160E+01  amature         Maturity

 1.1950E-01  bmature         Maturity

 5.0000E-01  pctxwt          Weight percentage

 5.0000E-01  pctgain         Gain percentage

 7.2000E-01  Nmort_E         Egg daily natural mortality

 6.7000E-01  Nmort_Y         Yolksac daily natural mortality

 1.4000E-01  Nmort_L         Larva daily natural mortality

 1.1000E-02  Nmort_J         Juven daily natural mortality

 4.1000E-01  Nmort_A         Adult yearly natural mortality

 0.0000E+00  Fymort          Fishing mortality

 First Year for Fish
 Free fish         1000        1000
 Fish ages            0       10000


 Pred Initial Locations, Grid: 01
 ==================================

               Ft0     Fx0     Fy0     Fz0      Fdt      Fdx      Fdy      Fdz

0 1    1    0.0000    0.00    0.00   30.00    0.000    0.000    0.000    0.000
0 1    1    0.0000    0.00    0.00   30.00    0.000    0.000    0.000    0.000
0 1    1    0.0000    0.00    0.00   30.00    0.000    0.000    0.000    0.000
0 1    1    0.0000    0.00    0.00   30.00    0.000    0.000    0.000    0.000
0 1    1    0.0000    0.00    0.00   30.00    0.000    0.000    0.000    0.000
0 1    1    0.0000    0.00    0.00   30.00    0.000    0.000    0.000    0.000
0 1    1    0.0000    0.00    0.00   30.00    0.000    0.000    0.000    0.000
0 1    1    0.0000    0.00    0.00   30.00    0.000    0.000    0.000    0.000
0 1    1    0.0000    0.00    0.00   30.00    0.000    0.000    0.000    0.000
0 1    1    0.0000    0.00    0.00   30.00    0.000    0.000    0.000    0.000
0 1    1    0.0000    0.00    0.00   30.00    0.000    0.000    0.000    0.000
0 1    1    0.0000    0.00    0.00   30.00    0.000    0.000    0.000    0.000
0 1    1    0.0000    0.00    0.00   30.00    0.000    0.000    0.000    0.000
0 1    1    0.0000    0.00    0.00   30.00    0.000    0.000    0.000    0.000
0 1    1    0.0000    0.00    0.00   30.00    0.000    0.000    0.000    0.000
0 1    1    0.0000    0.00    0.00   30.00    0.000    0.000    0.000    0.000
0 1    1    0.0000    0.00    0.00   30.00    0.000    0.000    0.000    0.000
0 1    1    0.0000    0.00    0.00   30.00    0.000    0.000    0.000    0.000
0 1    1    0.0000    0.00    0.00   30.00    0.000    0.000    0.000    0.000
0 1    1    0.0000    0.00    0.00   30.00    0.000    0.000    0.000    0.000
0 1    1    0.0000    0.00    0.00   30.00    0.000    0.000    0.000    0.000
0 1    1    0.0000    0.00    0.00   30.00    0.000    0.000    0.000    0.000
0 1    1    0.0000    0.00    0.00   30.00    0.000    0.000    0.000    0.000
0 1    1    0.0000    0.00    0.00   30.00    0.000    0.000    0.000    0.000
0 1    1    0.0000    0.00    0.00   30.00    0.000    0.000    0.000    0.000
0 1    1    0.0000    0.00    0.00   30.00    0.000    0.000    0.000    0.000
0 1    1    0.0000    0.00    0.00   30.00    0.000    0.000    0.000    0.000
0 1    1    0.0000    0.00    0.00   30.00    0.000    0.000    0.000    0.000
0 1    1    0.0000    0.00    0.00   30.00    0.000    0.000    0.000    0.000
0 1    1    0.0000    0.00    0.00   30.00    0.000    0.000    0.000    0.000
0 1    1    0.0000    0.00    0.00   30.00    0.000    0.000    0.000    0.000
0 1    1    0.0000    0.00    0.00   30.00    0.000    0.000    0.000    0.000
0 1    1    0.0000    0.00    0.00   30.00    0.000    0.000    0.000    0.000
0 1    1    0.0000    0.00    0.00   30.00    0.000    0.000    0.000    0.000
0 1    1    0.0000    0.00    0.00   30.00    0.000    0.000    0.000    0.000
0 1    1    0.0000    0.00    0.00   30.00    0.000    0.000    0.000    0.000
0 1    1    0.0000    0.00    0.00   30.00    0.000    0.000    0.000    0.000
0 1    1    0.0000    0.00    0.00   30.00    0.000    0.000    0.000    0.000
0 1    1    0.0000    0.00    0.00   30.00    0.000    0.000    0.000    0.000
0 1    1    0.0000    0.00    0.00   30.00    0.000    0.000    0.000    0.000
0 1    1    0.0000    0.00    0.00   30.00    0.000    0.000    0.000    0.000
0 1    1    0.0000    0.00    0.00   30.00    0.000    0.000    0.000    0.000
0 1    1    0.0000    0.00    0.00   30.00    0.000    0.000    0.000    0.000
0 1    1    0.0000    0.00    0.00   30.00    0.000    0.000    0.000    0.000
0 1    1    0.0000    0.00    0.00   30.00    0.000    0.000    0.000    0.000
0 1    1    0.0000    0.00    0.00   30.00    0.000    0.000    0.000    0.000
0 1    1    0.0000    0.00    0.00   30.00    0.000    0.000    0.000    0.000
0 1    1    0.0000    0.00    0.00   30.00    0.000    0.000    0.000    0.000
0 1    1    0.0000    0.00    0.00   30.00    0.000    0.000    0.000    0.000
0 1    1    0.0000    0.00    0.00   30.00    0.000    0.000    0.000    0.000
0 1    1    0.0000    0.00    0.00   30.00    0.000    0.000    0.000    0.000
0 1    1    0.0000    0.00    0.00   30.00    0.000    0.000    0.000    0.000
0 1    1    0.0000    0.00    0.00   30.00    0.000    0.000    0.000    0.000
0 1    1    0.0000    0.00    0.00   30.00    0.000    0.000    0.000    0.000
0 1    1    0.0000    0.00    0.00   30.00    0.000    0.000    0.000    0.000
0 1    1    0.0000    0.00    0.00   30.00    0.000    0.000    0.000    0.000
0 1    1    0.0000    0.00    0.00   30.00    0.000    0.000    0.000    0.000
0 1    1    0.0000    0.00    0.00   30.00    0.000    0.000    0.000    0.000
0 1    1    0.0000    0.00    0.00   30.00    0.000    0.000    0.000    0.000
0 1    1    0.0000    0.00    0.00   30.00    0.000    0.000    0.000    0.000
0 1    1    0.0000    0.00    0.00   30.00    0.000    0.000    0.000    0.000
0 1    1    0.0000    0.00    0.00   30.00    0.000    0.000    0.000    0.000
0 1    1    0.0000    0.00    0.00   30.00    0.000    0.000    0.000    0.000
0 1    1    0.0000    0.00    0.00   30.00    0.000    0.000    0.000    0.000
0 1    1    0.0000    0.00    0.00   30.00    0.000    0.000    0.000    0.000
0 1    1    0.0000    0.00    0.00   30.00    0.000    0.000    0.000    0.000
0 1    1    0.0000    0.00    0.00   30.00    0.000    0.000    0.000    0.000
0 1    1    0.0000    0.00    0.00   30.00    0.000    0.000    0.000    0.000
0 1    1    0.0000    0.00    0.00   30.00    0.000    0.000    0.000    0.000
0 1    1    0.0000    0.00    0.00   30.00    0.000    0.000    0.000    0.000
0 1    1    0.0000    0.00    0.00   30.00    0.000    0.000    0.000    0.000
0 1    1    0.0000    0.00    0.00   30.00    0.000    0.000    0.000    0.000
0 1    1    0.0000    0.00    0.00   30.00    0.000    0.000    0.000    0.000
0 1    1    0.0000    0.00    0.00   30.00    0.000    0.000    0.000    0.000
0 1    1    0.0000    0.00    0.00   30.00    0.000    0.000    0.000    0.000
0 1    1    0.0000    0.00    0.00   30.00    0.000    0.000    0.000    0.000
0 1    1    0.0000    0.00    0.00   30.00    0.000    0.000    0.000    0.000
0 1    1    0.0000    0.00    0.00   30.00    0.000    0.000    0.000    0.000
0 1    1    0.0000    0.00    0.00   30.00    0.000    0.000    0.000    0.000
0 1    1    0.0000    0.00    0.00   30.00    0.000    0.000    0.000    0.000
0 1    1    0.0000    0.00    0.00   30.00    0.000    0.000    0.000    0.000
0 1    1    0.0000    0.00    0.00   30.00    0.000    0.000    0.000    0.000
0 1    1    0.0000    0.00    0.00   30.00    0.000    0.000    0.000    0.000
0 1    1    0.0000    0.00    0.00   30.00    0.000    0.000    0.000    0.000
0 1    1    0.0000    0.00    0.00   30.00    0.000    0.000    0.000    0.000
0 1    1    0.0000    0.00    0.00   30.00    0.000    0.000    0.000    0.000
0 1    1    0.0000    0.00    0.00   30.00    0.000    0.000    0.000    0.000
0 1    1    0.0000    0.00    0.00   30.00    0.000    0.000    0.000    0.000
0 1    1    0.0000    0.00    0.00   30.00    0.000    0.000    0.000    0.000
0 1    1    0.0000    0.00    0.00   30.00    0.000    0.000    0.000    0.000
0 1    1    0.0000    0.00    0.00   30.00    0.000    0.000    0.000    0.000
0 1    1    0.0000    0.00    0.00   30.00    0.000    0.000    0.000    0.000
0 1    1    0.0000    0.00    0.00   30.00    0.000    0.000    0.000    0.000
0 1    1    0.0000    0.00    0.00   30.00    0.000    0.000    0.000    0.000
0 1    1    0.0000    0.00    0.00   30.00    0.000    0.000    0.000    0.000
0 1    1    0.0000    0.00    0.00   30.00    0.000    0.000    0.000    0.000
0 1    1    0.0000    0.00    0.00   30.00    0.000    0.000    0.000    0.000
0 1    1    0.0000    0.00    0.00   30.00    0.000    0.000    0.000    0.000
0 1    1    0.0000    0.00    0.00   30.00    0.000    0.000    0.000    0.000
0 1    1    0.0000    0.00    0.00   30.00    0.000    0.000    0.000    0.000

        100  Npred           Number of predator trajectories to compute.

        100  Npredperspecies Number of predators per species.

          1  Npredspecies    Number of predator species.

        100  Npos            Number of predator initial positions.
 
 PARAMETERS FOR PREDATOR SPECIES            1
 --------------------------------------
 1.0000E+04  Pwwt0           Pred initial wet weight (g).

 2.0000E+01  Pwth0           Pred initial worth.

 9.1000E+01  Pmgstr          Pred migration start.

 2.7400E+02  Pmgend          Pred migration end.

 5.0000E-01  Fpref           Pred preference for Fish.

 1.0000E-01  Fpref           Pred preference for Fish.

 1.4000E+08  K_Fish          Pred half-saturation constant for Fish.

 2.5000E+07  K_Fish          Pred half-saturation constant for Fish.

 2.0000E-01  Pcmax           Pred maxmimum comsumption rate.

 1.0500E+02  Pswim           Pred swimming speed.



 Fleet Initial Locations, Grid: 01
 ==================================

               Ft0     Fx0     Fy0     Fz0      Fdt      Fdx      Fdy      Fdz


        100  Nboats          Number of boats in fishing fleet.

          5  Nports          Number of ports for fishing fleet.
 
 PARAMETERS FOR FISHING FLEET
 ----------------------------
 3.0000E+04  CatchMax        Maximum daily catch (kg).

 3.0000E+01  TravCost        Cost per hour of traveling ($).

 2.0000E+01  BoatVel         Boat motoring speed (km/h).

 1.0000E-02  Qcatch          Catchability (-).

 2.0000E+00  FishTime        Time to fish at a location (hr).


         20  EncMax          Maximum numer of encounters with fish (-).
 9.0000E-01  EncRate         Mean encounter rate (-).

 5.0000E-01  CatchPrice      Price for catch by port ($/kg).

 5.0000E-01  CatchPrice      Price for catch by port ($/kg).

 5.0000E-01  CatchPrice      Price for catch by port ($/kg).

 5.0000E-01  CatchPrice      Price for catch by port ($/kg).

 5.0000E-01  CatchPrice      Price for catch by port ($/kg).


        142  iPort           Port grid i location.

        134  iPort           Port grid i location.

        124  iPort           Port grid i location.

        173  iPort           Port grid i location.

        173  iPort           Port grid i location.

        201  jPort           Port grid j location.

        212  jPort           Port grid j location.

        265  jPort           Port grid j location.

        408  jPort           Port grid j location.

        411  jPort           Port grid j location.

 Process Information:

 Node #  0 (pid=    7601) is active.
 Node #  7 (pid=    7608) is active.
 Node #  8 (pid=    7609) is active.
 Node # 14 (pid=    7615) is active.
 Node #  5 (pid=    7606) is active.
 Node # 11 (pid=    7612) is active.
 Node # 16 (pid=   10880) is active.
 Node # 12 (pid=    7613) is active.
 Node # 18 (pid=   10882) is active.
 Node #  1 (pid=    7602) is active.
 Node # 22 (pid=   10886) is active.
 Node # 29 (pid=   10893) is active.
 Node # 31 (pid=   10895) is active.
 Node # 55 (pid=   14564) is active.
 Node # 13 (pid=    7614) is active.
 Node # 26 (pid=   10890) is active.
 Node #  2 (pid=    7603) is active.
 Node # 21 (pid=   10885) is active.
 Node # 62 (pid=   14571) is active.
 Node #  6 (pid=    7607) is active.
 Node # 23 (pid=   10887) is active.
 Node # 53 (pid=   14562) is active.
 Node # 51 (pid=   14560) is active.
 Node # 19 (pid=   10883) is active.
 Node # 49 (pid=   14558) is active.
 Node #  9 (pid=    7610) is active.
 Node # 28 (pid=   10892) is active.
[...]
   1069 21188 08:32:30  3.525909E-04  1.947327E+04  1.947327E+04  1.237549E+16
          (123,331,26)  3.430506E-03  5.793295E-04  1.750076E-01  6.020652E-01
   1070 21188 08:35:00  3.466208E-04  1.947327E+04  1.947327E+04  1.237549E+16
          (123,331,26)  3.481692E-03  5.727483E-04  1.769131E-01  6.030993E-01
   1071 21188 08:37:30  3.409431E-04  1.947326E+04  1.947326E+04  1.237548E+16
          (123,331,26)  3.531280E-03  5.661308E-04  1.787265E-01  6.039366E-01
   1072 21188 08:40:00  3.355634E-04  1.947326E+04  1.947326E+04  1.237548E+16
          (123,331,26)  3.579253E-03  5.595046E-04  1.804452E-01  6.045792E-01
   1073 21188 08:42:30  3.304868E-04  1.947325E+04  1.947325E+04  1.237548E+16
          (123,331,26)  3.625596E-03  5.528994E-04  1.820660E-01  6.050294E-01
   1074 21188 08:45:00  3.257177E-04  1.947325E+04  1.947325E+04  1.237547E+16
          (123,331,26)  3.670293E-03  5.463286E-04  1.835870E-01  6.052900E-01
   1075 21188 08:47:30  3.212600E-04  1.947325E+04  1.947325E+04  1.237547E+16
          (123,331,26)  3.713326E-03  5.398280E-04  1.850062E-01  6.053623E-01
   1076 21188 08:50:00  3.171170E-04  1.947324E+04  1.947324E+04  1.237546E+16
          (123,331,26)  3.754679E-03  5.334171E-04  1.863228E-01  6.052502E-01
   1077 21188 08:52:30  3.132915E-04  1.947324E+04  1.947324E+04  1.237546E+16
          (123,331,26)  3.794330E-03  5.271231E-04  1.875356E-01  6.049568E-01
   1078 21188 08:55:00  3.097857E-04  1.947323E+04  1.947323E+04  1.237546E+16
          (123,331,26)  3.832249E-03  5.209590E-04  1.886432E-01  6.044841E-01
   1079 21188 08:57:30  3.066012E-04  1.947323E+04  1.947323E+04  1.237545E+16
          (123,331,25)  3.676220E-03  5.457019E-04  1.898293E-01  6.038344E-01
   1080 21188 09:00:00  3.037389E-04  1.947323E+04  1.947323E+04  1.237545E+16
          (123,331,25)  3.711724E-03  5.384625E-04  1.907693E-01  6.030166E-01
 SET_FILTER add to sum           1     iw:          45
 SET_FILTER add to sum           2     iw:          21
 SET_FILTER add to sum           3     iw:          -3
 SET_FILTER add to sum           4     iw:         -27
 SET_FILTER add to sum           5     iw:         -51
 fish_cell
 pred_cell
    GET_2DFLD   - surface u-wind component,                  t = 21188 15:00:00
                   (Rec=0014631, Index=2, File: Uwind.1948-2007.nc)
                   (Tmin=      17531.1250 Tmax=      39445.8750)
                   (Min = -1.07423648E+01 Max =  2.41093435E+00)
    GET_2DFLD   - surface v-wind component,                  t = 21188 15:00:00
                   (Rec=0014631, Index=2, File: Vwind.1948-2007.nc)
                   (Tmin=      17531.1250 Tmax=      39445.8750)
                   (Min = -8.05160774E+00 Max =  1.79261758E+01)
    GET_2DFLD   - surface air pressure,                      t = 21188 15:00:00
                   (Rec=0014631, Index=2, File: Pair.1948-2007.nc)
                   (Tmin=      17531.1250 Tmax=      39445.8750)
                   (Min =  9.96382531E+02 Max =  1.04681342E+03)
    GET_2DFLD   - surface air temperature,                   t = 21188 15:00:00
                   (Rec=0014631, Index=2, File: Tair.1948-2007.nc)
                   (Tmin=      17531.1250 Tmax=      39445.8750)
                   (Min = -6.21380280E+00 Max =  2.24567374E+01)
    GET_2DFLD   - surface air relative humidity,             t = 21188 15:00:00
                   (Rec=0014631, Index=2, File: Qair.1948-2007.nc)
                   (Tmin=      17531.1250 Tmax=      39445.8750)
                   (Min =  9.21272027E-04 Max =  1.24784546E-02)
   1081 21188 09:02:30  3.011994E-04  1.947322E+04  1.947322E+04  1.237544E+16
          (123,331,25)  3.745474E-03  5.313582E-04  1.916080E-01  6.020224E-01
   1082 21188 09:05:00  2.989817E-04  1.947322E+04  1.947322E+04  1.237544E+16
          (123,331,25)  3.777436E-03  5.243976E-04  1.923470E-01  6.008384E-01
   1083 21188 09:07:30  2.970851E-04  1.947321E+04  1.947321E+04  1.237543E+16
          (123,331,25)  3.807577E-03  5.175857E-04  1.929881E-01  5.994677E-01
   1084 21188 09:10:00  2.955083E-04  1.947321E+04  1.947321E+04  1.237543E+16
          (123,331,25)  3.835870E-03  5.109229E-04  1.935330E-01  5.979132E-01
   1085 21188 09:12:30  2.942495E-04  1.947321E+04  1.947321E+04  1.237542E+16
          (123,331,25)  3.862290E-03  5.044093E-04  1.939825E-01  5.961774E-01
   1086 21188 09:15:00  2.933059E-04  1.947320E+04  1.947320E+04  1.237542E+16
          (123,331,25)  3.886812E-03  4.980464E-04  1.943376E-01  5.942625E-01
   1087 21188 09:17:30  2.926746E-04  1.947320E+04  1.947320E+04  1.237541E+16
          (123,331,25)  3.909422E-03  4.918346E-04  1.945997E-01  5.921717E-01
   1088 21188 09:20:00  2.923517E-04  1.947320E+04  1.947320E+04  1.237541E+16
          (123,331,25)  3.930115E-03  4.857783E-04  1.947697E-01  5.899082E-01
   1089 21188 09:22:30  2.923328E-04  1.947319E+04  1.947319E+04  1.237540E+16
          (123,331,25)  3.948884E-03  4.798812E-04  1.948465E-01  5.874754E-01
   1090 21188 09:25:00  2.926129E-04  1.947319E+04  1.947319E+04  1.237540E+16
          (123,331,25)  3.965726E-03  4.741551E-04  1.948313E-01  5.848782E-01
   1091 21188 09:27:30  2.931860E-04  1.947319E+04  1.947319E+04  1.237539E+16
          (123,331,25)  3.980647E-03  4.686167E-04  1.947265E-01  5.821215E-01
   1092 21188 09:30:00  2.940458E-04  1.947318E+04  1.947318E+04  1.237539E+16
          (123,331,25)  3.993656E-03  4.632653E-04  1.945312E-01  5.792097E-01
   1093 21188 09:32:30  2.951853E-04  1.947318E+04  1.947318E+04  1.237538E+16
          (123,331,25)  4.004759E-03  4.581255E-04  1.942466E-01  5.761477E-01
   1094 21188 09:35:00  2.965969E-04  1.947318E+04  1.947318E+04  1.237538E+16
          (123,331,25)  4.013963E-03  4.532085E-04  1.938736E-01  5.729403E-01
   1095 21188 09:37:30  2.982722E-04  1.947318E+04  1.947318E+04  1.237538E+16
          (123,331,25)  4.021280E-03  4.485254E-04  1.934147E-01  5.695920E-01
   1096 21188 09:40:00  3.002027E-04  1.947317E+04  1.947317E+04  1.237537E+16
          (123,331,25)  4.026725E-03  4.440834E-04  1.928710E-01  5.661074E-01
   1097 21188 09:42:30  3.023790E-04  1.947317E+04  1.947317E+04  1.237537E+16
          (123,331,25)  4.030309E-03  4.398873E-04  1.922434E-01  5.624905E-01
   1098 21188 09:45:00  3.047916E-04  1.947317E+04  1.947317E+04  1.237536E+16
          (123,331,25)  4.032044E-03  4.359374E-04  1.915331E-01  5.587459E-01
   1099 21188 09:47:30  3.074303E-04  1.947317E+04  1.947317E+04  1.237536E+16
          (123,331,25)  4.031946E-03  4.322386E-04  1.907425E-01  5.548783E-01
   1100 21188 09:50:00  3.102850E-04  1.947316E+04  1.947316E+04  1.237535E+16
          (123,331,25)  4.030028E-03  4.287862E-04  1.898720E-01  5.508915E-01
   1101 21188 09:52:30  3.133448E-04  1.947316E+04  1.947316E+04  1.237535E+16
          (123,331,25)  4.026304E-03  4.255792E-04  1.889224E-01  5.467900E-01
   1102 21188 09:55:00  3.165986E-04  1.947316E+04  1.947316E+04  1.237534E+16
          (123,331,25)  4.020789E-03  4.226146E-04  1.878965E-01  5.425777E-01
   1103 21188 09:57:30  3.200352E-04  1.947316E+04  1.947316E+04  1.237534E+16
          (123,331,25)  4.013503E-03  4.198822E-04  1.867956E-01  5.382595E-01
   1104 21188 10:00:00  3.236429E-04  1.947316E+04  1.947316E+04  1.237534E+16
          (123,331,25)  4.004465E-03  4.173797E-04  1.856205E-01  5.338280E-01
 SET_FILTER add to sum           1     iw:          46
 SET_FILTER add to sum           2     iw:          22
 SET_FILTER add to sum           3     iw:          -2
 SET_FILTER add to sum           4     iw:         -26
 SET_FILTER add to sum           5     iw:         -50
 fish_cell
 pred_cell
   1105 21188 10:02:30  3.274099E-04  1.947316E+04  1.947316E+04  1.237533E+16
          (123,331,25)  3.993689E-03  4.151045E-04  1.843734E-01  5.292990E-01
   1106 21188 10:05:00  3.313238E-04  1.947316E+04  1.947316E+04  1.237533E+16
          (123,331,25)  3.981201E-03  4.130531E-04  1.830573E-01  5.246776E-01
   1107 21188 10:07:30  3.353722E-04  1.947316E+04  1.947316E+04  1.237533E+16
          (123,331,25)  3.967026E-03  4.112208E-04  1.816741E-01  5.199689E-01
   1108 21188 10:10:00  3.395426E-04  1.947316E+04  1.947316E+04  1.237532E+16
          (123,331,25)  3.951194E-03  4.096025E-04  1.802255E-01  5.151780E-01
   1109 21188 10:12:30  3.438220E-04  1.947316E+04  1.947316E+04  1.237532E+16
          (123,331,24)  3.784788E-03  3.932431E-04  1.788803E-01  5.103107E-01
   1110 21188 10:15:00  3.481974E-04  1.947316E+04  1.947316E+04  1.237532E+16
          (123,331,24)  3.769074E-03  3.904833E-04  1.773200E-01  5.053720E-01
   1111 21188 10:17:30  3.526556E-04  1.947316E+04  1.947316E+04  1.237531E+16
          (123,331,24)  3.751829E-03  3.880092E-04  1.756991E-01  5.003722E-01
   1112 21188 10:20:00  3.571833E-04  1.947316E+04  1.947316E+04  1.237531E+16
          (123,331,24)  3.733089E-03  3.858273E-04  1.740195E-01  4.953163E-01
   1113 21188 10:22:30  3.617670E-04  1.947316E+04  1.947316E+04  1.237531E+16
          (123,331,24)  3.712885E-03  3.839408E-04  1.722823E-01  4.902064E-01
   1114 21188 10:25:00  3.663935E-04  1.947316E+04  1.947316E+04  1.237530E+16
          (123,331,24)  3.691244E-03  3.823510E-04  1.704887E-01  4.850462E-01
   1115 21188 10:27:30  3.710491E-04  1.947316E+04  1.947316E+04  1.237530E+16
          (123,331,24)  3.668197E-03  3.810558E-04  1.686403E-01  4.798393E-01
   1116 21188 10:30:00  3.757204E-04  1.947316E+04  1.947317E+04  1.237530E+16
          (123,331,24)  3.643767E-03  3.800491E-04  1.667384E-01  4.745891E-01
   1117 21188 10:32:30  3.803940E-04  1.947317E+04  1.947317E+04  1.237530E+16
          (123,331,24)  3.617979E-03  3.793227E-04  1.647842E-01  4.692984E-01
   1118 21188 10:35:00  3.850565E-04  1.947317E+04  1.947317E+04  1.237530E+16
          (123,331,24)  3.590853E-03  3.788664E-04  1.627792E-01  4.639700E-01
   1119 21188 10:37:30  3.896945E-04  1.947317E+04  1.947317E+04  1.237530E+16
          (123,331,24)  3.562410E-03  3.786704E-04  1.607250E-01  4.586066E-01
   1120 21188 10:40:00  3.942949E-04  1.947318E+04  1.947318E+04  1.237529E+16
          (123,331,24)  3.532671E-03  3.787260E-04  1.586236E-01  4.532116E-01
   1121 21188 10:42:30  3.988447E-04  1.947318E+04  1.947318E+04  1.237529E+16
          (123,331,24)  3.501662E-03  3.790257E-04  1.564762E-01  4.477875E-01
   1122 21188 10:45:00  4.033311E-04  1.947319E+04  1.947319E+04  1.237529E+16
          (123,331,24)  3.469410E-03  3.795681E-04  1.542847E-01  4.423368E-01
   1123 21188 10:47:30  4.077416E-04  1.947319E+04  1.947319E+04  1.237529E+16
          (123,331,24)  3.435949E-03  3.803532E-04  1.520508E-01  4.368638E-01
   1124 21188 10:50:00  4.120640E-04  1.947320E+04  1.947320E+04  1.237529E+16
          (123,331,24)  3.401315E-03  3.813839E-04  1.497756E-01  4.313732E-01
   1125 21188 10:52:30  4.162864E-04  1.947320E+04  1.947320E+04  1.237529E+16
          (123,331,24)  3.365551E-03  3.826671E-04  1.474602E-01  4.258691E-01
   1126 21188 10:55:00  4.203974E-04  1.947321E+04  1.947321E+04  1.237529E+16
          (122,330,28)  3.032237E-04  1.869598E-03  1.493125E-01  4.203557E-01
   1127 21188 10:57:30  4.243862E-04  1.947322E+04  1.947322E+04  1.237529E+16
          (122,330,28)  2.823039E-04  1.823484E-03  1.509668E-01  4.148375E-01
   1128 21188 11:00:00  4.282422E-04  1.947322E+04  1.947322E+04  1.237529E+16
          (122,330,28)  2.618594E-04  1.778767E-03  1.525660E-01  4.093154E-01
 SET_FILTER add to sum           1     iw:          47
 SET_FILTER add to sum           2     iw:          23
 SET_FILTER add to sum           3     iw:          -1
 SET_FILTER add to sum           4     iw:         -25
 SET_FILTER add to sum           5     iw:         -49
 fish_cell
 pred_cell
   1129 21188 11:02:30  4.319555E-04  1.947323E+04  1.947323E+04  1.237529E+16
          (122,330,28)  2.418983E-04  1.735465E-03  1.541101E-01  4.037967E-01
   1130 21188 11:05:00  4.355168E-04  1.947324E+04  1.947324E+04  1.237530E+16
          (122,330,28)  2.224241E-04  1.693579E-03  1.555981E-01  3.982846E-01
   1131 21188 11:07:30  4.389171E-04  1.947325E+04  1.947325E+04  1.237530E+16
          (122,330,28)  2.034449E-04  1.653096E-03  1.570285E-01  3.927812E-01
   1132 21188 11:10:00  4.421484E-04  1.947325E+04  1.947325E+04  1.237530E+16
          (122,330,28)  1.849610E-04  1.613987E-03  1.584014E-01  3.872879E-01
   1133 21188 11:12:30  4.452028E-04  1.947326E+04  1.947326E+04  1.237530E+16
          (122,330,28)  1.669713E-04  1.576216E-03  1.597155E-01  3.818055E-01
   1134 21188 11:15:00  4.480733E-04  1.947327E+04  1.947327E+04  1.237530E+16
          (122,330,28)  1.494712E-04  1.539737E-03  1.609701E-01  3.763345E-01
   1135 21188 11:17:30  4.507533E-04  1.947328E+04  1.947328E+04  1.237531E+16
          (122,330,28)  1.324503E-04  1.504497E-03  1.621643E-01  3.708747E-01
   1136 21188 11:20:00  4.532367E-04  1.947329E+04  1.947329E+04  1.237531E+16
          (122,330,28)  1.159013E-04  1.470432E-03  1.632966E-01  3.654249E-01
   1137 21188 11:22:30  4.555183E-04  1.947330E+04  1.947330E+04  1.237531E+16
          (122,330,28)  9.980660E-05  1.437496E-03  1.643661E-01  3.599849E-01
   1138 21188 11:25:00  4.575930E-04  1.947331E+04  1.947331E+04  1.237532E+16
          (122,330,28)  8.416150E-05  1.405627E-03  1.653728E-01  3.597097E-01
   1139 21188 11:27:30  4.594564E-04  1.947332E+04  1.947332E+04  1.237532E+16
          (122,330,28)  6.896270E-05  1.374785E-03  1.663135E-01  3.601091E-01
   1140 21188 11:30:00  4.611048E-04  1.947333E+04  1.947333E+04  1.237533E+16
          (122,330,28)  5.420217E-05  1.344959E-03  1.671902E-01  3.604862E-01
   1141 21188 11:32:30  4.625347E-04  1.947334E+04  1.947334E+04  1.237533E+16
          (122,330,28)  3.987376E-05  1.316139E-03  1.680019E-01  3.608397E-01
   1142 21188 11:35:00  4.637434E-04  1.947335E+04  1.947335E+04  1.237534E+16
          (122,330,28)  2.597903E-05  1.288338E-03  1.687466E-01  3.611690E-01
   1143 21188 11:37:30  4.647286E-04  1.947337E+04  1.947337E+04  1.237534E+16
          (122,330,28)  1.251606E-05  1.261566E-03  1.694252E-01  3.614734E-01
   1144 21188 11:40:00  4.654887E-04  1.947338E+04  1.947338E+04  1.237535E+16
          (122,330,28)  5.074898E-07  1.235859E-03  1.700367E-01  3.617526E-01
   1145 21188 11:42:30  4.660225E-04  1.947339E+04  1.947339E+04  1.237535E+16
          (122,330,28)  1.309180E-05  1.211276E-03  1.705830E-01  3.620054E-01
   1146 21188 11:45:00  4.663292E-04  1.947340E+04  1.947340E+04  1.237536E+16
          (122,330,28)  2.524798E-05  1.187845E-03  1.710622E-01  3.622309E-01
   1147 21188 11:47:30  4.664091E-04  1.947341E+04  1.947342E+04  1.237536E+16
          (122,330,28)  3.697110E-05  1.165612E-03  1.714741E-01  3.624277E-01
   1148 21188 11:50:00  4.662625E-04  1.947343E+04  1.947343E+04  1.237537E+16
          (122,330,28)  4.827119E-05  1.144597E-03  1.718197E-01  3.625930E-01
   1149 21188 11:52:30  4.658908E-04  1.947344E+04  1.947344E+04  1.237538E+16
          (122,330,28)  5.916590E-05  1.124822E-03  1.720962E-01  3.627191E-01
   1150 21188 11:55:00  4.652956E-04  1.947345E+04  1.947345E+04  1.237539E+16
          (122,330,28)  6.964760E-05  1.106283E-03  1.723059E-01  3.627473E-01
   1151 21188 11:57:30  4.644791E-04  1.947347E+04  1.947347E+04  1.237539E+16
          (122,330,28)  7.974798E-05  1.088965E-03  1.724447E-01  3.627436E-01
   1152 21188 12:00:00  4.634443E-04  1.947348E+04  1.947348E+04  1.237540E+16
          (122,330,28)  8.948299E-05  1.072812E-03  1.725137E-01  3.627030E-01
 SET_FILTER add to sum           1     iw:          48
 SET_FILTER add to sum           2     iw:          24
 SET_FILTER add to sum           3     iw:           0
 SET_FILTER add to sum           4     iw:         -24
 SET_FILTER add to sum           5     iw:         -48
      DEF_HIS   - creating history file, Grid 01: /glade/scratch/dussin/tmpdir_CCS1-RD.HCof01R/CCS1-RD.HCof01R_his_00003.nc
      WRT_HIS   - wrote history  fields (Index=1,1) into time record = 0000001
      DEF_AVG   - creating average file, Grid 01: /glade/scratch/dussin/tmpdir_CCS1-RD.HCof01R/CCS1-RD.HCof01R_avg_0002.nc
      WRT_AVG   - wrote averaged fields into time record =             0000001
      WRT_RST   - wrote re-start fields (Index=1,1) into time record = 0000001
      WRT_FILT  - wrote filter fields into time record =               0000001
      WRT_FILT  - wrote filter fields into time record =               0000001
      WRT_FILT  - wrote filter fields into time record =               0000001
      WRT_FILT  - wrote filter fields into time record =               0000001
      WRT_FILT  - wrote filter fields into time record =               0000001

 Elapsed CPU time (seconds):

 Node   # 16 CPU:     478.091
 Node   #  0 CPU:     450.427
 Node   # 17 CPU:     478.339
 Node   #  1 CPU:     478.190
 Node   # 48 CPU:     477.727
 Node   #  2 CPU:     478.195
 Node   #  3 CPU:     478.198
 Node   # 32 CPU:     477.942
 Node   # 33 CPU:     478.353
 Node   # 34 CPU:     478.388
 Node   #  4 CPU:     478.205
 Node   # 35 CPU:     478.390
 Node   # 18 CPU:     478.342
 Node   #  5 CPU:     478.190
 Node   # 36 CPU:     478.389
 Node   # 19 CPU:     478.366
 Node   #  6 CPU:     478.226
 Node   # 37 CPU:     478.405
 Node   #  7 CPU:     478.222
 Node   # 38 CPU:     478.392
 Node   #  8 CPU:     478.186
 Node   # 39 CPU:     478.386
 Node   # 40 CPU:     478.371
 Node   #  9 CPU:     478.182
 Node   # 10 CPU:     478.195
 Node   # 41 CPU:     478.382
 Node   # 11 CPU:     478.219
 Node   # 12 CPU:     478.179
 Node   # 49 CPU:     478.290
 Node   # 50 CPU:     478.276
 Node   # 13 CPU:     478.209
 Node   # 14 CPU:     478.195
 Node   # 51 CPU:     478.290
 Node   # 52 CPU:     478.321
 Node   # 15 CPU:     477.938
 Node   # 53 CPU:     478.282
 Node   # 20 CPU:     478.323
 Node   # 54 CPU:     478.283
 Node   # 21 CPU:     478.378
 Node   # 55 CPU:     478.321
 Node   # 22 CPU:     478.349
 Node   # 56 CPU:     478.299
 Node   # 23 CPU:     478.374
 Node   # 24 CPU:     478.331
 Node   # 57 CPU:     478.278
 Node   # 42 CPU:     478.388
 Node   # 43 CPU:     478.390
 Node   # 44 CPU:     478.380
 Node   # 45 CPU:     478.390
 Node   # 25 CPU:     478.318
 Node   # 46 CPU:     478.395
 Node   # 47 CPU:     478.155
 Node   # 26 CPU:     478.356
 Node   # 27 CPU:     478.355
 Node   # 58 CPU:     478.278
 Node   # 28 CPU:     478.346
 Node   # 59 CPU:     478.304
 Node   # 60 CPU:     478.288
 Node   # 29 CPU:     478.358
 Node   # 30 CPU:     478.365
 Node   # 61 CPU:     478.288
 Node   # 62 CPU:     478.296
 Node   # 31 CPU:     478.146
 Node   # 63 CPU:     477.735

 ROMS/TOMS - Output NetCDF summary for Grid 01:
             number of time records written in HISTORY file = 00000001
             number of time records written in RESTART file = 00000001
             number of time records written in AVERAGE file = 00000001
             number of time records written in FILTER RESTART file = 00000005
             number of time records written in FILTER RESTART file = 00000005
             number of time records written in FILTER RESTART file = 00000005
             number of time records written in FILTER RESTART file = 00000005
             number of time records written in FILTER RESTART file = 00000005
             number of time records written in FILTER RESTART file = 00000005
             number of time records written in FILTER RESTART file = 00000005
             number of time records written in FILTER RESTART file = 00000005
             number of time records written in FILTER RESTART file = 00000005

 Analytical header files used:

     ROMS/Functionals/ana_btflux.h
     /glade/u/home/dussin/TOOLS/RMANAGER/user/raphael/CCS1-RD.HCof01R/src/ana_nudgcoef.h
     ROMS/Functionals/ana_srflux.h
     ROMS/Functionals/ana_stflux.h

 Biology model header files used:

     ROMS/Nonlinear/Biology/nemuro.h

 ROMS/TOMS: DONE... Friday - March 20, 2015 -  8:05:29 PM
